version 2
run General-0-20171122-17:05:10-26354
attr configname General
attr datetime 20171122-17:05:10
attr experiment General
attr inifile omnetpp.ini
attr iterationvars ""
attr iterationvarsf ""
attr measurement ""
attr network Aloha
attr processid 26354
attr repetition 0
attr replication #0
attr resultdir results
attr runnumber 0
attr seedset 0
param Aloha.numHosts 10
param Aloha.slotTime 100ms
param Aloha.txRate 27kbps
param Aloha.host[*].pkLenBits 952b
param Aloha.host[*].radioDelay ms
param Aloha.server.pkLenBits 952b
param Aloha.server.radioDelay 10ms
param Aloha.server.iaTime exponential(0.4s)
param Aloha.host[*].distance "normal(1, 3)"
param Aloha.sf*.per 0

vector 0 Aloha.host[0] radioState:vector ETV
attr enum IDLE=0,TRANSMIT=1
attr source state
attr title "Radio state, vector"
vector 1 Aloha.host[1] radioState:vector ETV
attr enum IDLE=0,TRANSMIT=1
attr source state
attr title "Radio state, vector"
vector 2 Aloha.host[2] radioState:vector ETV
attr enum IDLE=0,TRANSMIT=1
attr source state
attr title "Radio state, vector"
vector 3 Aloha.host[3] radioState:vector ETV
attr enum IDLE=0,TRANSMIT=1
attr source state
attr title "Radio state, vector"
vector 4 Aloha.host[4] radioState:vector ETV
attr enum IDLE=0,TRANSMIT=1
attr source state
attr title "Radio state, vector"
vector 5 Aloha.host[5] radioState:vector ETV
attr enum IDLE=0,TRANSMIT=1
attr source state
attr title "Radio state, vector"
vector 6 Aloha.host[6] radioState:vector ETV
attr enum IDLE=0,TRANSMIT=1
attr source state
attr title "Radio state, vector"
vector 7 Aloha.host[7] radioState:vector ETV
attr enum IDLE=0,TRANSMIT=1
attr source state
attr title "Radio state, vector"
vector 8 Aloha.host[8] radioState:vector ETV
attr enum IDLE=0,TRANSMIT=1
attr source state
attr title "Radio state, vector"
vector 9 Aloha.host[9] radioState:vector ETV
attr enum IDLE=0,TRANSMIT=1
attr source state
attr title "Radio state, vector"
vector 10 Aloha.sf7 serverChannelState:vector ETV
attr enum "IDLE = 0, TRANSMIT = 1 , PRERECEIVE = 2, RECEIVE = 3, RECEIVE2=4, IDLE2 = 5, ACK=6, ACK2=7, SLEEP=8"
attr source channelState
attr title "Channel state, vector"
vector 11 Aloha.sf8 serverChannelState:vector ETV
attr enum "IDLE = 0, TRANSMIT = 1 , PRERECEIVE = 2, RECEIVE = 3, RECEIVE2=4, IDLE2 = 5, ACK=6, ACK2=7, SLEEP=8"
attr source channelState
attr title "Channel state, vector"
vector 12 Aloha.sf9 serverChannelState:vector ETV
attr enum "IDLE = 0, TRANSMIT = 1 , PRERECEIVE = 2, RECEIVE = 3, RECEIVE2=4, IDLE2 = 5, ACK=6, ACK2=7, SLEEP=8"
attr source channelState
attr title "Channel state, vector"
vector 13 Aloha.sf10 serverChannelState:vector ETV
attr enum "IDLE = 0, TRANSMIT = 1 , PRERECEIVE = 2, RECEIVE = 3, RECEIVE2=4, IDLE2 = 5, ACK=6, ACK2=7, SLEEP=8"
attr source channelState
attr title "Channel state, vector"
vector 14 Aloha.sf11 serverChannelState:vector ETV
attr enum "IDLE = 0, TRANSMIT = 1 , PRERECEIVE = 2, RECEIVE = 3, RECEIVE2=4, IDLE2 = 5, ACK=6, ACK2=7, SLEEP=8"
attr source channelState
attr title "Channel state, vector"
vector 15 Aloha.sf12 serverChannelState:vector ETV
attr enum "IDLE = 0, TRANSMIT = 1 , PRERECEIVE = 2, RECEIVE = 3, RECEIVE2=4, IDLE2 = 5, ACK=6, ACK2=7, SLEEP=8"
attr source channelState
attr title "Channel state, vector"
vector 16 Aloha.host[0] duration:vector ETV
attr source duration
attr title "Duration Package, vector"
vector 17 Aloha.host[1] duration:vector ETV
attr source duration
attr title "Duration Package, vector"
vector 18 Aloha.host[2] duration:vector ETV
attr source duration
attr title "Duration Package, vector"
vector 19 Aloha.host[3] duration:vector ETV
attr source duration
attr title "Duration Package, vector"
vector 20 Aloha.host[4] duration:vector ETV
attr source duration
attr title "Duration Package, vector"
vector 21 Aloha.host[5] duration:vector ETV
attr source duration
attr title "Duration Package, vector"
vector 22 Aloha.host[6] duration:vector ETV
attr source duration
attr title "Duration Package, vector"
vector 23 Aloha.host[7] duration:vector ETV
attr source duration
attr title "Duration Package, vector"
vector 24 Aloha.host[8] duration:vector ETV
attr source duration
attr title "Duration Package, vector"
vector 25 Aloha.host[9] duration:vector ETV
attr source duration
attr title "Duration Package, vector"
0	0	0	0
0	1	0.4	2
0	11	0.409481481481	1
0	21	0.409481481481	1
0	41	0.5	2
0	42	0.5	1
0	43	0.5	1
0	50	0.5	2
0	53	0.509481481481	1
0	66	0.509481481481	1
0	69	0.546800731261	2
0	85	0.593601462522	1
0	86	0.593601462522	1
0	88	0.6	2
0	96	0.6	1
0	97	0.6	3
0	98	0.6	4
0	105	0.6	5
0	115	0.609481481481	5
0	119	0.646800731261	6
0	120	0.646800731261	6
0	121	0.646800731261	6
0	127	0.656282212742	6
0	133	0.693601462522	6
0	140	0.7	5
0	141	0.7	6
0	142	0.7	6
0	157	0.709481481481	8
0	162	0.746800731261	8
0	163	0.746800731261	8
0	164	0.746800731261	8
0	166	0.746800731261	8
0	173	0.756282212742	8
0	174	0.756282212742	8
0	190	0.8	8
0	191	0.8	8
0	193	0.8	8
0	204	0.809481481481	8
0	210	0.846800731261	8
0	223	0.856282212742	8
0	238	0.9	8
0	278	1	8
0	319	1.1	8
0	762	6.3	8
0	799	11.7	5
0	804	11.8	8
0	808	11.846800731261	8
0	811	11.9	8
0	814	11.946800731261	8
0	892	17.3	8
0	915	21.746800731261	5
0	918	21.846800731261	8
0	919	21.893601462522	8
0	923	21.946800731261	8
0	924	21.993601462522	8
0	1002	27.4	8
0	1025	31.793601462522	5
0	1027	31.893601462522	8
0	1028	31.940402193783	8
0	1031	31.993601462522	8
0	1032	32.040402193783	8
0	1112	37.4	8
0	1135	41.840402193783	5
0	1137	41.940402193783	8
0	1138	41.987202925044	8
0	1140	42.040402193783	8
0	1142	42.087202925044	8
0	1222	47.5	8
0	1245	51.887202925044	5
0	1247	51.987202925044	8
0	1248	52.034003656305	8
0	1251	52.087202925044	8
0	1253	52.134003656305	8
0	1332	57.5	8
0	1355	61.934003656305	5
0	1357	62.034003656305	8
0	1359	62.080804387566	8
0	1362	62.134003656305	8
0	1363	62.180804387566	8
0	1442	67.6	8
0	1465	71.980804387566	5
0	1468	72.080804387566	8
0	1469	72.127605118827	8
0	1472	72.180804387566	8
0	1473	72.227605118827	8
0	1552	77.6	8
0	1575	82.027605118827	5
0	1578	82.127605118827	8
0	1580	82.174405850088	8
0	1582	82.227605118827	8
0	1583	82.274405850088	8
0	1662	87.7	8
0	1686	92.074405850088	5
0	1689	92.174405850088	8
0	1690	92.221206581349	8
0	1692	92.274405850088	8
0	1693	92.321206581349	8
0	1772	97.7	8
0	1796	102.121206581349	5
0	1799	102.221206581349	8
0	1800	102.26800731261	8
0	1802	102.321206581349	8
0	1803	102.36800731261	8
0	1883	107.8	8
0	1907	112.16800731261	5
0	1909	112.26800731261	8
0	1910	112.314808043871	8
0	1912	112.36800731261	8
0	1913	112.414808043871	8
0	1993	117.8	8
0	2017	122.214808043871	5
0	2019	122.314808043871	8
0	2020	122.361608775132	8
0	2022	122.414808043871	8
0	2023	122.461608775132	8
0	2103	127.9	8
0	2127	132.261608775132	5
0	2129	132.361608775132	8
0	2130	132.408409506393	8
0	2132	132.461608775132	8
0	2133	132.508409506393	8
0	2213	137.9	8
0	2237	142.308409506393	5
0	2239	142.408409506393	8
0	2240	142.455210237654	8
0	2242	142.508409506393	8
0	2243	142.555210237654	8
0	2323	148	8
0	2347	152.355210237654	5
0	2349	152.455210237654	8
0	2350	152.502010968915	8
0	2352	152.555210237654	8
0	2353	152.602010968915	8
0	2433	158	8
0	2457	162.402010968915	5
0	2459	162.502010968915	8
0	2460	162.548811700176	8
0	2462	162.602010968915	8
0	2463	162.648811700176	8
0	2544	168.1	8
0	2567	172.448811700176	5
0	2569	172.548811700176	8
0	2570	172.595612431437	8
0	2572	172.648811700176	8
0	2573	172.695612431437	8
0	2654	178.1	8
0	2677	182.495612431437	5
0	2679	182.595612431437	8
0	2680	182.642413162698	8
0	2682	182.695612431437	8
0	2684	182.742413162698	8
0	2764	188.1	8
0	2787	192.542413162698	5
0	2789	192.642413162698	8
0	2790	192.689213893959	8
0	2793	192.742413162698	8
0	2794	192.789213893959	8
0	2875	198.2	8
0	2897	202.589213893959	5
0	2899	202.689213893959	8
0	2901	202.73601462522	8
0	2903	202.789213893959	8
0	2904	202.83601462522	8
0	2985	208.2	8
0	3007	212.63601462522	5
0	3010	212.73601462522	8
0	3011	212.782815356481	8
0	3013	212.83601462522	8
0	3014	212.882815356481	8
0	3095	218.3	8
0	3117	222.682815356481	5
0	3120	222.782815356481	8
0	3121	222.829616087742	8
0	3123	222.882815356481	8
0	3124	222.929616087742	8
0	3205	228.3	8
0	3228	232.729616087742	5
0	3230	232.829616087742	8
0	3231	232.876416819003	8
0	3233	232.929616087742	8
0	3234	232.976416819003	8
0	3315	238.4	8
0	3338	242.776416819003	5
0	3340	242.876416819003	8
0	3341	242.923217550264	8
0	3343	242.976416819003	8
0	3344	243.023217550264	8
0	3425	248.4	8
0	3448	252.823217550264	5
0	3450	252.923217550264	8
0	3451	252.970018281525	8
0	3453	253.023217550264	8
0	3455	253.070018281525	8
0	3535	258.5	8
0	3558	262.870018281525	5
0	3560	262.970018281525	8
0	3561	263.016819012786	8
0	3564	263.070018281525	8
0	3565	263.116819012786	8
0	3645	268.5	8
0	3668	272.916819012786	5
0	3670	273.016819012786	8
0	3672	273.063619744047	8
0	3674	273.116819012786	8
0	3676	273.163619744047	8
0	3755	278.6	8
0	3778	282.963619744047	5
0	3781	283.063619744047	8
0	3782	283.110420475308	8
0	3785	283.163619744047	8
0	3786	283.210420475308	8
0	3865	288.6	8
0	3888	293.010420475308	5
0	3891	293.110420475308	8
0	3893	293.157221206569	8
0	3895	293.210420475308	8
0	3896	293.257221206569	8
0	3975	298.7	8
0	3999	303.057221206569	5
0	4002	303.157221206569	8
0	4003	303.20402193783	8
0	4005	303.257221206569	8
0	4006	303.30402193783	8
0	4085	308.7	8
0	4109	313.10402193783	5
0	4112	313.20402193783	8
0	4113	313.250822669091	8
0	4115	313.30402193783	8
0	4116	313.350822669091	8
0	4196	318.8	8
0	4220	323.150822669091	5
0	4222	323.250822669091	8
0	4223	323.297623400352	8
0	4225	323.350822669091	8
0	4226	323.397623400352	8
0	4306	328.8	8
0	4330	333.197623400352	5
0	4332	333.297623400352	8
0	4333	333.344424131613	8
0	4335	333.397623400352	8
0	4336	333.444424131613	8
0	4416	338.8	8
0	4440	343.244424131613	5
0	4442	343.344424131613	8
0	4443	343.391224862874	8
0	4445	343.444424131613	8
0	4446	343.491224862874	8
0	4526	348.9	8
0	4550	353.291224862874	5
0	4552	353.391224862874	8
0	4553	353.438025594135	8
0	4555	353.491224862874	8
0	4556	353.538025594135	8
0	4636	358.9	8
0	4660	363.338025594135	5
0	4662	363.438025594135	8
0	4663	363.484826325396	8
0	4665	363.538025594135	8
0	4666	363.584826325396	8
0	4746	369	8
0	4770	373.384826325396	5
0	4772	373.484826325396	8
0	4773	373.531627056657	8
0	4775	373.584826325396	8
0	4776	373.631627056657	8
0	4856	379	8
0	4880	383.431627056657	5
0	4882	383.531627056657	8
0	4883	383.578427787918	8
0	4885	383.631627056657	8
0	4886	383.678427787918	8
0	4967	389.1	8
0	4990	393.478427787918	5
0	4992	393.578427787918	8
0	4993	393.625228519179	8
0	4995	393.678427787918	8
0	4997	393.725228519179	8
0	5077	399.1	8
0	5100	403.525228519179	5
0	5102	403.625228519179	8
0	5103	403.67202925044	8
0	5106	403.725228519179	8
0	5107	403.77202925044	8
0	5188	409.2	8
0	5210	413.57202925044	5
0	5212	413.67202925044	8
0	5214	413.718829981701	8
0	5216	413.77202925044	8
0	5217	413.818829981701	8
0	5298	419.2	8
0	5320	423.618829981701	5
0	5323	423.718829981701	8
0	5324	423.765630712962	8
0	5326	423.818829981701	8
0	5327	423.865630712962	8
0	5408	429.3	8
0	5430	433.665630712962	5
0	5433	433.765630712962	8
0	5434	433.812431444223	8
0	5436	433.865630712962	8
0	5437	433.912431444223	8
0	5518	439.3	8
0	5541	443.712431444223	5
0	5543	443.812431444223	8
0	5544	443.859232175484	8
0	5546	443.912431444223	8
0	5547	443.959232175484	8
0	5628	449.4	8
0	5651	453.759232175484	5
0	5653	453.859232175484	8
0	5654	453.906032906745	8
0	5656	453.959232175484	8
0	5657	454.006032906745	8
0	5738	459.4	8
0	5761	463.806032906745	5
0	5763	463.906032906745	8
0	5764	463.952833638006	8
0	5766	464.006032906745	8
0	5768	464.052833638006	8
0	5848	469.5	8
0	5870	473.852833638006	5
0	5873	473.952833638006	8
0	5874	473.999634369267	8
0	5877	474.052833638006	8
0	5878	474.099634369267	8
0	5958	479.5	8
0	5980	483.899634369267	5
0	5982	483.999634369267	8
0	5984	484.046435100528	8
0	5987	484.099634369267	8
0	5989	484.146435100528	8
0	6068	489.5	8
0	6090	493.946435100528	5
0	6092	494.046435100528	8
0	6094	494.093235831789	8
0	6097	494.146435100528	8
0	6098	494.193235831789	8
0	6178	499.6	8
0	6200	503.993235831789	5
0	6203	504.093235831789	8
0	6205	504.14003656305	8
0	6207	504.193235831789	8
0	6208	504.24003656305	8
0	6288	509.6	8
0	6310	514.04003656305	5
0	6314	514.14003656305	8
0	6315	514.186837294311	8
0	6317	514.24003656305	8
0	6318	514.286837294311	8
0	6398	519.7	8
0	6421	524.086837294311	5
0	6424	524.186837294311	8
0	6425	524.233638025572	8
0	6427	524.286837294311	8
0	6428	524.333638025572	8
0	6508	529.7	8
0	6532	534.133638025572	5
0	6534	534.233638025572	8
0	6535	534.280438756833	8
0	6537	534.333638025572	8
0	6538	534.380438756833	8
0	6619	539.8	8
0	6642	544.180438756833	5
0	6644	544.280438756833	8
0	6645	544.327239488094	8
0	6647	544.380438756833	8
0	6648	544.427239488094	8
0	6729	549.8	8
0	6752	554.227239488094	5
0	6754	554.327239488094	8
0	6755	554.374040219355	8
0	6757	554.427239488094	8
0	6758	554.474040219355	8
0	6838	559.9	8
0	6862	564.274040219355	5
0	6864	564.374040219355	8
0	6865	564.420840950616	8
0	6867	564.474040219355	8
0	6868	564.520840950616	8
0	6945	569.9	8
0	6972	574.320840950616	5
0	6974	574.420840950616	8
0	6975	574.467641681877	8
0	6977	574.520840950616	8
0	6978	574.567641681877	8
0	7055	580	8
0	7082	584.367641681877	5
0	7084	584.467641681877	8
0	7085	584.514442413138	8
0	7087	584.567641681877	8
0	7088	584.614442413138	8
0	7163	590	8
0	7192	594.414442413138	5
0	7194	594.514442413138	8
0	7195	594.561243144399	8
0	7197	594.614442413138	8
0	7198	594.661243144399	8
0	7273	600.1	8
0	7301	604.461243144399	5
0	7304	604.561243144399	8
0	7305	604.60804387566	8
0	7307	604.661243144399	8
0	7309	604.70804387566	8
0	7383	610.1	8
0	7411	614.50804387566	5
0	7414	614.60804387566	8
0	7415	614.654844606921	8
0	7418	614.70804387566	8
0	7419	614.754844606921	8
0	7494	620.2	8
0	7521	624.554844606921	5
0	7523	624.654844606921	8
0	7526	624.701645338182	8
0	7528	624.754844606921	8
0	7529	624.801645338182	8
0	7604	630.2	8
0	7631	634.601645338182	5
0	7635	634.701645338182	8
0	7636	634.748446069443	8
0	7638	634.801645338182	8
0	7639	634.848446069443	8
0	7714	640.3	8
0	7741	644.648446069443	5
0	7744	644.748446069443	8
0	7745	644.795246800704	8
0	7748	644.848446069443	8
0	7749	644.895246800704	8
0	7824	650.3	8
0	7851	654.695246800704	5
0	7854	654.795246800704	8
0	7855	654.842047531965	8
0	7857	654.895246800704	8
0	7859	654.942047531965	8
0	7934	660.3	8
0	7962	664.742047531965	5
0	7964	664.842047531965	8
0	7965	664.888848263226	8
0	7967	664.942047531965	8
0	7968	664.988848263226	8
0	8044	670.4	8
0	8072	674.788848263226	5
0	8074	674.888848263226	8
0	8075	674.935648994487	8
0	8077	674.988848263226	8
0	8078	675.035648994487	8
0	8154	680.4	8
0	8182	684.835648994487	5
0	8184	684.935648994487	8
0	8185	684.982449725748	8
0	8187	685.035648994487	8
0	8189	685.082449725748	8
0	8264	690.5	8
0	8292	694.882449725748	5
0	8294	694.982449725748	8
0	8295	695.029250457009	8
0	8298	695.082449725748	8
0	8299	695.129250457009	8
0	8374	700.5	8
0	8402	704.929250457009	5
0	8404	705.029250457009	8
0	8406	705.07605118827	8
0	8408	705.129250457009	8
0	8410	705.17605118827	8
0	8484	710.6	8
0	8512	714.97605118827	5
0	8515	715.07605118827	8
0	8516	715.122851919531	8
0	8519	715.17605118827	8
0	8520	715.222851919531	8
0	8594	720.6	8
0	8622	725.022851919531	5
0	8625	725.122851919531	8
0	8627	725.169652650792	8
0	8629	725.222851919531	8
0	8630	725.269652650792	8
0	8704	730.7	8
0	8733	735.069652650792	5
0	8736	735.169652650792	8
0	8737	735.216453382053	8
0	8739	735.269652650792	8
0	8740	735.316453382053	8
0	8814	740.7	8
0	8843	745.116453382053	5
0	8846	745.216453382053	8
0	8847	745.263254113314	8
0	8849	745.316453382053	8
0	8850	745.363254113314	8
0	8925	750.8	8
0	8954	755.163254113314	5
0	8956	755.263254113314	8
0	8957	755.310054844575	8
0	8959	755.363254113314	8
0	8960	755.410054844575	8
0	9035	760.8	8
0	9064	765.210054844575	5
0	9066	765.310054844575	8
0	9067	765.356855575836	8
0	9069	765.410054844575	8
0	9070	765.456855575836	8
0	9145	770.9	8
0	9174	775.256855575836	5
0	9176	775.356855575836	8
0	9177	775.403656307097	8
0	9179	775.456855575836	8
0	9180	775.503656307097	8
0	9255	780.9	8
0	9284	785.303656307097	5
0	9286	785.403656307097	8
0	9287	785.450457038358	8
0	9289	785.503656307097	8
0	9290	785.550457038358	8
0	9365	791	8
0	9394	795.350457038358	5
0	9396	795.450457038358	8
0	9397	795.497257769619	8
0	9399	795.550457038358	8
0	9400	795.597257769619	8
0	9475	801	8
0	9504	805.397257769619	5
0	9506	805.497257769619	8
0	9507	805.54405850088	8
0	9509	805.597257769619	8
0	9510	805.64405850088	8
0	9585	811	8
0	9614	815.44405850088	5
0	9616	815.54405850088	8
0	9617	815.590859232141	8
0	9619	815.64405850088	8
0	9620	815.690859232141	8
0	9696	821.1	8
0	9724	825.490859232141	5
0	9726	825.590859232141	8
0	9727	825.637659963402	8
0	9729	825.690859232141	8
0	9731	825.737659963402	8
0	9806	831.1	8
0	9834	835.537659963402	5
0	9836	835.637659963402	8
0	9837	835.684460694663	8
0	9840	835.737659963402	8
0	9841	835.784460694663	8
0	9917	841.2	8
0	9943	845.584460694663	5
0	9946	845.684460694663	8
0	9948	845.731261425924	8
0	9950	845.784460694663	8
0	9951	845.831261425924	8
0	10027	851.2	8
0	10054	855.631261425924	5
0	10057	855.731261425924	8
0	10058	855.778062157185	8
0	10060	855.831261425924	8
0	10061	855.878062157185	8
0	10137	861.3	8
0	10163	865.678062157185	5
0	10167	865.778062157185	8
0	10168	865.824862888446	8
0	10170	865.878062157185	8
0	10171	865.924862888446	8
0	10246	871.3	8
0	10274	875.724862888446	5
0	10277	875.824862888446	8
0	10278	875.871663619707	8
0	10280	875.924862888446	8
0	10281	875.971663619707	8
0	10356	881.4	8
0	10384	885.771663619707	5
0	10386	885.871663619707	8
0	10388	885.918464350968	8
0	10390	885.971663619707	8
0	10391	886.018464350968	8
0	10463	891.4	8
0	10494	895.818464350968	5
0	10496	895.918464350968	8
0	10497	895.965265082229	8
0	10500	896.018464350968	8
0	10502	896.065265082229	8
0	10574	901.5	8
0	10604	905.865265082229	5
0	10606	905.965265082229	8
0	10607	906.01206581349	8
0	10610	906.065265082229	8
0	10612	906.11206581349	8
0	10683	911.5	8
0	10714	915.91206581349	5
0	10716	916.01206581349	8
0	10718	916.058866544751	8
0	10721	916.11206581349	8
0	10723	916.158866544751	8
0	10793	921.6	8
0	10824	925.958866544751	5
0	10827	926.058866544751	8
0	10828	926.105667276012	8
0	10831	926.158866544751	8
0	10833	926.205667276012	8
0	10901	931.6	8
0	10934	936.005667276012	5
0	10937	936.105667276012	8
0	10939	936.152468007273	8
0	10941	936.205667276012	8
0	10942	936.252468007273	8
0	11011	941.7	8
0	11045	946.052468007273	5
0	11048	946.152468007273	8
0	11049	946.199268738534	8
0	11051	946.252468007273	8
0	11052	946.299268738534	8
0	11120	951.7	8
0	11155	956.099268738534	5
0	11158	956.199268738534	8
0	11159	956.246069469795	8
0	11161	956.299268738534	8
0	11162	956.346069469795	8
0	11230	961.7	8
0	11266	966.146069469795	5
0	11268	966.246069469795	8
0	11269	966.292870201056	8
0	11271	966.346069469795	8
0	11272	966.392870201056	8
0	11341	971.8	8
0	11376	976.192870201056	5
0	11378	976.292870201056	8
0	11379	976.339670932317	8
0	11381	976.392870201056	8
0	11382	976.439670932317	8
0	11451	981.8	8
0	11486	986.239670932317	5
0	11488	986.339670932317	8
0	11489	986.386471663578	8
0	11491	986.439670932317	8
0	11492	986.486471663578	8
0	11561	991.9	8
0	11596	996.286471663578	5
0	11598	996.386471663578	8
0	11599	996.433272394839	8
0	11601	996.486471663578	8
0	11602	996.533272394839	8
0	11671	1001.9	8
0	11706	1006.333272394839	5
0	11708	1006.433272394839	8
0	11709	1006.4800731261	8
0	11711	1006.533272394839	8
0	11712	1006.5800731261	8
0	11781	1012	8
0	11815	1016.3800731261	5
0	11818	1016.4800731261	8
0	11819	1016.526873857361	8
0	11821	1016.5800731261	8
0	11822	1016.626873857361	8
0	11891	1022	8
0	11922	1026.426873857361	5
0	11927	1026.526873857361	8
0	11928	1026.573674588622	8
0	11931	1026.626873857361	8
0	11932	1026.673674588622	8
0	12002	1032.1	8
0	12030	1036.473674588622	5
0	12034	1036.573674588622	8
0	12037	1036.620475319883	8
0	12040	1036.673674588622	8
0	12042	1036.720475319883	8
0	12112	1042.1	8
0	12139	1046.520475319883	5
0	12142	1046.620475319883	8
0	12145	1046.667276051144	8
0	12148	1046.720475319883	8
0	12151	1046.767276051144	8
0	12222	1052.2	8
0	12249	1056.567276051144	5
0	12251	1056.667276051144	8
0	12254	1056.714076782405	8
0	12256	1056.767276051144	8
0	12259	1056.814076782405	8
0	12332	1062.2	8
0	12359	1066.614076782405	5
0	12362	1066.714076782405	8
0	12363	1066.760877513666	8
0	12365	1066.814076782405	8
0	12367	1066.860877513666	8
0	12442	1072.3	8
0	12469	1076.660877513666	5
0	12472	1076.760877513666	8
0	12473	1076.807678244927	8
0	12475	1076.860877513666	8
0	12476	1076.907678244927	8
0	12552	1082.3	8
0	12580	1086.707678244927	5
0	12582	1086.807678244927	8
0	12583	1086.854478976188	8
0	12585	1086.907678244927	8
0	12586	1086.954478976188	8
0	12662	1092.4	8
0	12690	1096.754478976188	5
0	12692	1096.854478976188	8
0	12693	1096.901279707449	8
0	12695	1096.954478976188	8
0	12696	1097.001279707449	8
0	12772	1102.4	8
0	12800	1106.801279707449	5
0	12802	1106.901279707449	8
0	12803	1106.94808043871	8
0	12805	1107.001279707449	8
0	12807	1107.04808043871	8
0	12882	1112.5	8
0	12910	1116.84808043871	5
0	12912	1116.94808043871	8
0	12913	1116.994881169971	8
0	12916	1117.04808043871	8
0	12917	1117.094881169971	8
0	12992	1122.5	8
0	13019	1126.894881169971	5
0	13022	1126.994881169971	8
0	13023	1127.041681901232	8
0	13026	1127.094881169971	8
0	13028	1127.141681901232	8
0	13101	1132.5	8
0	13130	1136.941681901232	5
0	13132	1137.041681901232	8
0	13134	1137.088482632493	8
0	13137	1137.141681901232	8
0	13138	1137.188482632493	8
0	13211	1142.6	8
0	13239	1146.988482632493	5
0	13243	1147.088482632493	8
0	13245	1147.135283363754	8
0	13247	1147.188482632493	8
0	13248	1147.235283363754	8
0	13318	1152.6	8
0	13349	1157.035283363754	5
0	13354	1157.135283363754	8
0	13355	1157.182084095015	8
0	13357	1157.235283363754	8
0	13358	1157.282084095015	8
0	13428	1162.7	8
0	13460	1167.082084095015	5
0	13463	1167.182084095015	8
0	13465	1167.228884826276	8
0	13467	1167.282084095015	8
0	13468	1167.328884826276	8
0	13536	1172.7	8
0	13570	1177.128884826276	5
0	13573	1177.228884826276	8
0	13574	1177.275685557537	8
0	13577	1177.328884826276	8
0	13578	1177.375685557537	8
0	13649	1182.8	8
0	13681	1187.175685557537	5
0	13683	1187.275685557537	8
0	13685	1187.322486288798	8
0	13687	1187.375685557537	8
0	13688	1187.422486288798	8
0	13757	1192.8	8
0	13791	1197.222486288798	5
0	13793	1197.322486288798	8
0	13794	1197.369287020059	8
0	13797	1197.422486288798	8
0	13798	1197.469287020059	8
0	13867	1202.9	8
0	13901	1207.269287020059	5
0	13903	1207.369287020059	8
0	13904	1207.41608775132	8
0	13906	1207.469287020059	8
0	13908	1207.51608775132	8
0	13976	1212.9	8
0	14011	1217.31608775132	5
0	14013	1217.41608775132	8
0	14014	1217.462888482581	8
0	14016	1217.51608775132	8
0	14017	1217.562888482581	8
0	14086	1223	8
0	14121	1227.362888482581	5
0	14123	1227.462888482581	8
0	14124	1227.509689213842	8
0	14126	1227.562888482581	8
0	14127	1227.609689213842	8
0	14196	1233	8
0	14231	1237.409689213842	5
0	14233	1237.509689213842	8
0	14234	1237.556489945103	8
0	14236	1237.609689213842	8
0	14237	1237.656489945103	8
0	14307	1243.1	8
0	14341	1247.456489945103	5
0	14343	1247.556489945103	8
0	14344	1247.603290676364	8
0	14346	1247.656489945103	8
0	14348	1247.703290676364	8
0	14417	1253.1	8
0	14451	1257.503290676364	5
0	14453	1257.603290676364	8
0	14454	1257.650091407625	8
0	14457	1257.703290676364	8
0	14458	1257.750091407625	8
0	14528	1263.2	8
0	14561	1267.550091407625	5
0	14563	1267.650091407625	8
0	14564	1267.696892138886	8
0	14567	1267.750091407625	8
0	14568	1267.796892138886	8
0	14638	1273.2	8
0	14671	1277.596892138886	5
0	14673	1277.696892138886	8
0	14675	1277.743692870147	8
0	14677	1277.796892138886	8
0	14678	1277.843692870147	8
0	14748	1283.2	8
0	14781	1287.643692870147	5
0	14784	1287.743692870147	8
0	14785	1287.790493601408	8
0	14787	1287.843692870147	8
0	14788	1287.890493601408	8
0	14858	1293.3	8
0	14891	1297.690493601408	5
0	14894	1297.790493601408	8
0	14895	1297.837294332669	8
0	14897	1297.890493601408	8
0	14898	1297.937294332669	8
0	14968	1303.3	8
0	15002	1307.737294332669	5
0	15004	1307.837294332669	8
0	15005	1307.88409506393	8
0	15007	1307.937294332669	8
0	15008	1307.98409506393	8
0	15078	1313.4	8
0	15112	1317.78409506393	5
0	15114	1317.88409506393	8
0	15115	1317.930895795191	8
0	15117	1317.98409506393	8
0	15118	1318.030895795191	8
0	15188	1323.4	8
0	15222	1327.830895795191	5
0	15224	1327.930895795191	8
0	15225	1327.977696526452	8
0	15227	1328.030895795191	8
0	15229	1328.077696526452	8
0	15298	1333.5	8
0	15332	1337.877696526452	5
0	15334	1337.977696526452	8
0	15335	1338.024497257713	8
0	15338	1338.077696526452	8
0	15339	1338.124497257713	8
0	15408	1343.5	8
0	15442	1347.924497257713	5
0	15444	1348.024497257713	8
0	15446	1348.071297988974	8
0	15448	1348.124497257713	8
0	15450	1348.171297988974	8
0	15518	1353.6	8
0	15552	1357.971297988974	5
0	15555	1358.071297988974	8
0	15556	1358.118098720235	8
0	15559	1358.171297988974	8
0	15560	1358.218098720235	8
0	15628	1363.6	8
0	15662	1368.018098720235	5
0	15665	1368.118098720235	8
0	15667	1368.164899451496	8
0	15669	1368.218098720235	8
0	15670	1368.264899451496	8
0	15738	1373.7	8
0	15773	1378.064899451496	5
0	15776	1378.164899451496	8
0	15777	1378.211700182757	8
0	15779	1378.264899451496	8
0	15780	1378.311700182757	8
0	15848	1383.7	8
0	15883	1388.111700182757	5
0	15886	1388.211700182757	8
0	15887	1388.258500914018	8
0	15889	1388.311700182757	8
0	15890	1388.358500914018	8
0	15959	1393.8	8
0	15994	1398.158500914018	5
0	15996	1398.258500914018	8
0	15997	1398.305301645279	8
0	15999	1398.358500914018	8
0	16000	1398.405301645279	8
0	16069	1403.8	8
0	16104	1408.205301645279	5
0	16106	1408.305301645279	8
0	16107	1408.35210237654	8
0	16109	1408.405301645279	8
0	16110	1408.45210237654	8
0	16179	1413.9	8
0	16214	1418.25210237654	5
0	16216	1418.35210237654	8
0	16217	1418.398903107801	8
0	16219	1418.45210237654	8
0	16220	1418.498903107801	8
0	16288	1423.9	8
0	16324	1428.298903107801	5
0	16326	1428.398903107801	8
0	16327	1428.445703839062	8
0	16329	1428.498903107801	8
0	16330	1428.545703839062	8
0	16395	1433.9	8
0	16434	1438.345703839062	5
0	16436	1438.445703839062	8
0	16437	1438.492504570323	8
0	16439	1438.545703839062	8
0	16440	1438.592504570323	8
0	16505	1444	8
0	16544	1448.392504570323	5
0	16546	1448.492504570323	8
0	16547	1448.539305301584	8
0	16549	1448.592504570323	8
0	16550	1448.639305301584	8
0	16613	1454	8
0	16654	1458.439305301584	5
0	16656	1458.539305301584	8
0	16657	1458.586106032845	8
0	16659	1458.639305301584	8
0	16660	1458.686106032845	8
0	16726	1464.1	8
0	16764	1468.486106032845	5
0	16766	1468.586106032845	8
0	16767	1468.632906764106	8
0	16769	1468.686106032845	8
0	16771	1468.732906764106	8
0	16834	1474.1	8
0	16874	1478.532906764106	5
0	16876	1478.632906764106	8
0	16877	1478.679707495367	8
0	16880	1478.732906764106	8
0	16881	1478.779707495367	8
0	16945	1484.2	8
0	16984	1488.579707495367	5
0	16986	1488.679707495367	8
0	16988	1488.726508226628	8
0	16990	1488.779707495367	8
0	16991	1488.826508226628	8
0	17054	1494.2	8
0	17094	1498.626508226628	5
0	17097	1498.726508226628	8
0	17098	1498.773308957889	8
0	17100	1498.826508226628	8
0	17101	1498.873308957889	8
0	17164	1504.3	8
0	17203	1508.673308957889	5
0	17207	1508.773308957889	8
0	17208	1508.82010968915	8
0	17210	1508.873308957889	8
0	17211	1508.92010968915	8
0	17274	1514.3	8
0	17314	1518.72010968915	5
0	17316	1518.82010968915	8
0	17317	1518.866910420411	8
0	17320	1518.92010968915	8
0	17321	1518.966910420411	8
0	17384	1524.4	8
0	17424	1528.766910420411	5
0	17426	1528.866910420411	8
0	17427	1528.913711151672	8
0	17429	1528.966910420411	8
0	17431	1529.013711151672	8
0	17494	1534.4	8
0	17534	1538.813711151672	5
0	17536	1538.913711151672	8
0	17537	1538.960511882933	8
0	17539	1539.013711151672	8
0	17541	1539.060511882933	8
0	17604	1544.5	8
0	17644	1548.860511882933	5
0	17646	1548.960511882933	8
0	17647	1549.007312614194	8
0	17650	1549.060511882933	8
0	17651	1549.107312614194	8
0	17714	1554.5	8
0	17754	1558.907312614194	5
0	17756	1559.007312614194	8
0	17758	1559.054113345455	8
0	17760	1559.107312614194	8
0	17762	1559.154113345455	8
0	17824	1564.6	8
0	17864	1568.954113345455	5
0	17867	1569.054113345455	8
0	17868	1569.100914076716	8
0	17871	1569.154113345455	8
0	17872	1569.200914076716	8
0	17934	1574.6	8
0	17974	1579.000914076716	5
0	17977	1579.100914076716	8
0	17979	1579.147714807977	8
0	17981	1579.200914076716	8
0	17982	1579.247714807977	8
0	18044	1584.7	8
0	18085	1589.047714807977	5
0	18088	1589.147714807977	8
0	18089	1589.194515539238	8
0	18091	1589.247714807977	8
0	18092	1589.294515539238	8
0	18153	1594.7	8
0	18195	1599.094515539238	5
0	18198	1599.194515539238	8
0	18199	1599.241316270499	8
0	18201	1599.294515539238	8
0	18202	1599.341316270499	8
0	18260	1604.7	8
0	18306	1609.141316270499	5
0	18308	1609.241316270499	8
0	18309	1609.28811700176	8
0	18311	1609.341316270499	8
0	18312	1609.38811700176	8
0	18371	1614.8	8
0	18416	1619.18811700176	5
0	18418	1619.28811700176	8
0	18419	1619.334917733021	8
0	18421	1619.38811700176	8
0	18422	1619.434917733021	8
0	18478	1624.8	8
0	18526	1629.234917733021	5
0	18528	1629.334917733021	8
0	18529	1629.381718464282	8
0	18531	1629.434917733021	8
0	18532	1629.481718464282	8
0	18588	1634.9	8
0	18636	1639.281718464282	5
0	18638	1639.381718464282	8
0	18639	1639.428519195543	8
0	18641	1639.481718464282	8
0	18642	1639.528519195543	8
0	18698	1644.9	8
0	18746	1649.328519195543	5
0	18748	1649.428519195543	8
0	18749	1649.475319926804	8
0	18751	1649.528519195543	8
0	18752	1649.575319926804	8
0	18808	1655	8
0	18856	1659.375319926804	5
0	18858	1659.475319926804	8
0	18859	1659.522120658065	8
0	18861	1659.575319926804	8
0	18862	1659.622120658065	8
0	18918	1665	8
0	18966	1669.422120658065	5
0	18968	1669.522120658065	8
0	18969	1669.568921389326	8
0	18971	1669.622120658065	8
0	18972	1669.668921389326	8
0	19029	1675.1	8
0	19076	1679.468921389326	5
0	19078	1679.568921389326	8
0	19079	1679.615722120587	8
0	19081	1679.668921389326	8
0	19083	1679.715722120587	8
0	19139	1685.1	8
0	19186	1689.515722120587	5
0	19188	1689.615722120587	8
0	19189	1689.662522851848	8
0	19192	1689.715722120587	8
0	19193	1689.762522851848	8
0	19250	1695.2	8
0	19296	1699.562522851848	5
0	19298	1699.662522851848	8
0	19300	1699.709323583109	8
0	19302	1699.762522851848	8
0	19303	1699.809323583109	8
0	19360	1705.2	8
0	19406	1709.609323583109	5
0	19409	1709.709323583109	8
0	19410	1709.75612431437	8
0	19412	1709.809323583109	8
0	19413	1709.85612431437	8
0	19470	1715.3	8
0	19516	1719.65612431437	5
0	19519	1719.75612431437	8
0	19520	1719.802925045631	8
0	19522	1719.85612431437	8
0	19523	1719.902925045631	8
0	19580	1725.3	8
0	19627	1729.702925045631	5
0	19629	1729.802925045631	8
0	19630	1729.849725776892	8
0	19632	1729.902925045631	8
0	19633	1729.949725776892	8
0	19690	1735.4	8
0	19737	1739.749725776892	5
0	19739	1739.849725776892	8
0	19740	1739.896526508153	8
0	19742	1739.949725776892	8
0	19743	1739.996526508153	8
0	19800	1745.4	8
0	19847	1749.796526508153	5
0	19849	1749.896526508153	8
0	19850	1749.943327239414	8
0	19852	1749.996526508153	8
0	19853	1750.043327239414	8
0	19910	1755.4	8
0	19957	1759.843327239414	5
0	19959	1759.943327239414	8
0	19960	1759.990127970675	8
0	19962	1760.043327239414	8
0	19964	1760.090127970675	8
0	20020	1765.5	8
0	20067	1769.890127970675	5
0	20069	1769.990127970675	8
0	20070	1770.036928701936	8
0	20073	1770.090127970675	8
0	20075	1770.136928701936	8
0	20130	1775.5	8
0	20177	1779.936928701936	5
0	20179	1780.036928701936	8
0	20181	1780.083729433197	8
0	20184	1780.136928701936	8
0	20185	1780.183729433197	8
0	20240	1785.6	8
0	20287	1789.983729433197	5
0	20290	1790.083729433197	8
0	20291	1790.130530164458	8
0	20294	1790.183729433197	8
0	20295	1790.230530164458	8
0	20350	1795.6	8
0	20397	1800.030530164458	5
0	20400	1800.130530164458	8
0	20402	1800.177330895719	8
0	20404	1800.230530164458	8
0	20405	1800.277330895719	8
0	20460	1805.7	8
0	20508	1810.077330895719	5
0	20511	1810.177330895719	8
0	20512	1810.22413162698	8
0	20514	1810.277330895719	8
0	20515	1810.32413162698	8
0	20570	1815.7	8
0	20618	1820.12413162698	5
0	20621	1820.22413162698	8
0	20622	1820.270932358241	8
0	20624	1820.32413162698	8
0	20625	1820.370932358241	8
0	20681	1825.8	8
0	20729	1830.170932358241	5
0	20731	1830.270932358241	8
0	20732	1830.317733089502	8
0	20734	1830.370932358241	8
0	20735	1830.417733089502	8
0	20791	1835.8	8
0	20839	1840.217733089502	5
0	20841	1840.317733089502	8
0	20842	1840.364533820763	8
0	20844	1840.417733089502	8
0	20845	1840.464533820763	8
0	20901	1845.9	8
0	20949	1850.264533820763	5
0	20951	1850.364533820763	8
0	20952	1850.411334552024	8
0	20954	1850.464533820763	8
0	20955	1850.511334552024	8
0	21011	1855.9	8
0	21059	1860.311334552024	5
0	21061	1860.411334552024	8
0	21062	1860.458135283285	8
0	21064	1860.511334552024	8
0	21065	1860.558135283285	8
0	21121	1866	8
0	21169	1870.358135283285	5
0	21171	1870.458135283285	8
0	21172	1870.504936014546	8
0	21174	1870.558135283285	8
0	21175	1870.604936014546	8
0	21231	1876	8
0	21279	1880.404936014546	5
0	21281	1880.504936014546	8
0	21282	1880.551736745807	8
0	21284	1880.604936014546	8
0	21285	1880.651736745807	8
0	21342	1886.1	8
0	21389	1890.451736745807	5
0	21391	1890.551736745807	8
0	21392	1890.598537477068	8
0	21394	1890.651736745807	8
0	21395	1890.698537477068	8
0	21452	1896.1	8
0	21499	1900.498537477068	5
0	21501	1900.598537477068	8
0	21502	1900.645338208329	8
0	21504	1900.698537477068	8
0	21506	1900.745338208329	8
0	21562	1906.1	8
0	21609	1910.545338208329	5
0	21611	1910.645338208329	8
0	21612	1910.69213893959	8
0	21615	1910.745338208329	8
0	21616	1910.79213893959	8
0	21673	1916.2	8
0	21719	1920.59213893959	5
0	21721	1920.69213893959	8
0	21723	1920.738939670851	8
0	21725	1920.79213893959	8
0	21726	1920.838939670851	8
0	21783	1926.2	8
0	21829	1930.638939670851	5
0	21832	1930.738939670851	8
0	21833	1930.785740402112	8
0	21835	1930.838939670851	8
0	21836	1930.885740402112	8
0	21893	1936.3	8
0	21939	1940.685740402112	5
0	21942	1940.785740402112	8
0	21943	1940.832541133373	8
0	21945	1940.885740402112	8
0	21946	1940.932541133373	8
0	22003	1946.3	8
0	22050	1950.732541133373	5
0	22052	1950.832541133373	8
0	22053	1950.879341864634	8
0	22055	1950.932541133373	8
0	22056	1950.979341864634	8
0	22113	1956.4	8
0	22160	1960.779341864634	5
0	22162	1960.879341864634	8
0	22163	1960.926142595895	8
0	22165	1960.979341864634	8
0	22166	1961.026142595895	8
0	22223	1966.4	8
0	22270	1970.826142595895	5
0	22272	1970.926142595895	8
0	22273	1970.972943327156	8
0	22275	1971.026142595895	8
0	22277	1971.072943327156	8
0	22333	1976.5	8
0	22380	1980.872943327156	5
0	22382	1980.972943327156	8
0	22383	1981.019744058417	8
0	22386	1981.072943327156	8
0	22387	1981.119744058417	8
0	22443	1986.5	8
0	22490	1990.919744058417	5
0	22492	1991.019744058417	8
0	22494	1991.066544789678	8
0	22496	1991.119744058417	8
0	22498	1991.166544789678	8
0	22553	1996.6	8
0	22600	2000.966544789678	5
0	22603	2001.066544789678	8
0	22604	2001.113345520939	8
0	22607	2001.166544789678	8
0	22608	2001.213345520939	8
0	22663	2006.6	8
0	22710	2011.013345520939	5
0	22713	2011.113345520939	8
0	22715	2011.1601462522	8
0	22717	2011.213345520939	8
0	22718	2011.2601462522	8
0	22773	2016.7	8
0	22821	2021.0601462522	5
0	22824	2021.1601462522	8
0	22825	2021.206946983461	8
0	22827	2021.2601462522	8
0	22828	2021.306946983461	8
0	22883	2026.7	8
0	22931	2031.106946983461	5
0	22934	2031.206946983461	8
0	22935	2031.253747714722	8
0	22937	2031.306946983461	8
0	22938	2031.353747714722	8
0	22994	2036.8	8
0	23042	2041.153747714722	5
0	23044	2041.253747714722	8
0	23045	2041.300548445983	8
0	23047	2041.353747714722	8
0	23048	2041.400548445983	8
0	23104	2046.8	8
0	23151	2051.200548445983	5
0	23154	2051.300548445983	8
0	23155	2051.347349177244	8
0	23157	2051.400548445983	8
0	23158	2051.447349177244	8
0	23214	2056.9	8
0	23258	2061.247349177244	5
0	23263	2061.347349177244	8
0	23264	2061.394149908505	8
0	23267	2061.447349177244	8
0	23268	2061.494149908505	8
0	23324	2066.9	8
0	23366	2071.294149908505	5
0	23370	2071.394149908505	8
0	23373	2071.440950639766	8
0	23376	2071.494149908505	8
0	23377	2071.540950639766	8
0	23434	2076.9	8
0	23475	2081.340950639766	5
0	23478	2081.440950639766	8
0	23481	2081.487751371027	8
0	23483	2081.540950639766	8
0	23486	2081.587751371027	8
0	23543	2087	8
0	23585	2091.387751371027	5
0	23587	2091.487751371027	8
0	23589	2091.534552102288	8
0	23591	2091.587751371027	8
0	23594	2091.634552102288	8
0	23653	2097	8
0	23695	2101.434552102288	5
0	23697	2101.534552102288	8
0	23698	2101.581352833549	8
0	23700	2101.634552102288	8
0	23702	2101.681352833549	8
0	23764	2107.1	8
0	23805	2111.481352833549	5
0	23807	2111.581352833549	8
0	23808	2111.62815356481	8
0	23810	2111.681352833549	8
0	23812	2111.72815356481	8
0	23874	2117.1	8
0	23915	2121.52815356481	5
0	23917	2121.62815356481	8
0	23918	2121.674954296071	8
0	23921	2121.72815356481	8
0	23922	2121.774954296071	8
0	23985	2127.2	8
0	24024	2131.574954296071	5
0	24027	2131.674954296071	8
0	24029	2131.721755027332	8
0	24031	2131.774954296071	8
0	24032	2131.821755027332	8
0	24095	2137.2	8
0	24134	2141.621755027332	5
0	24138	2141.721755027332	8
0	24139	2141.768555758593	8
0	24141	2141.821755027332	8
0	24142	2141.868555758593	8
0	24205	2147.3	8
0	24244	2151.668555758593	5
0	24248	2151.768555758593	8
0	24249	2151.815356489854	8
0	24251	2151.868555758593	8
0	24252	2151.915356489854	8
0	24315	2157.3	8
0	24352	2161.715356489854	5
0	24357	2161.815356489854	8
0	24359	2161.862157221115	8
0	24361	2161.915356489854	8
0	24362	2161.962157221115	8
0	24425	2167.4	8
0	24462	2171.762157221115	5
0	24467	2171.862157221115	8
0	24469	2171.908957952376	8
0	24471	2171.962157221115	8
0	24472	2172.008957952376	8
0	24535	2177.4	8
0	24572	2181.808957952376	5
0	24577	2181.908957952376	8
0	24578	2181.955758683637	8
0	24581	2182.008957952376	8
0	24583	2182.055758683637	8
0	24645	2187.5	8
0	24680	2191.855758683637	5
0	24684	2191.955758683637	8
0	24688	2192.002559414898	8
0	24691	2192.055758683637	8
0	24693	2192.102559414898	8
0	24755	2197.5	8
0	24790	2201.902559414898	5
0	24794	2202.002559414898	8
0	24796	2202.049360146159	8
0	24801	2202.102559414898	8
0	24803	2202.149360146159	8
0	24865	2207.6	8
0	24899	2211.949360146159	5
0	24903	2212.049360146159	8
0	24906	2212.09616087742	8
0	24910	2212.149360146159	8
0	24913	2212.19616087742	8
0	24974	2217.6	8
0	25009	2221.99616087742	5
0	25013	2222.09616087742	8
0	25017	2222.142961608681	8
0	25019	2222.19616087742	8
0	25023	2222.242961608681	8
0	25084	2227.6	8
0	25119	2232.042961608681	5
0	25124	2232.142961608681	8
0	25125	2232.189762339942	8
0	25129	2232.242961608681	8
0	25130	2232.289762339942	8
0	25194	2237.7	8
0	25230	2242.089762339942	5
0	25233	2242.189762339942	8
0	25235	2242.236563071203	8
0	25237	2242.289762339942	8
0	25240	2242.336563071203	8
0	25304	2247.7	8
0	25341	2252.136563071203	5
0	25343	2252.236563071203	8
0	25345	2252.283363802464	8
0	25347	2252.336563071203	8
0	25350	2252.383363802464	8
0	25415	2257.8	8
0	25451	2262.183363802464	5
0	25453	2262.283363802464	8
0	25454	2262.330164533725	8
0	25457	2262.383363802464	8
0	25458	2262.430164533725	8
0	25525	2267.8	8
0	25561	2272.230164533725	5
0	25563	2272.330164533725	8
0	25564	2272.376965264986	8
0	25566	2272.430164533725	8
0	25568	2272.476965264986	8
0	25635	2277.9	8
0	25671	2282.276965264986	5
0	25673	2282.376965264986	8
0	25674	2282.423765996247	8
0	25676	2282.476965264986	8
0	25677	2282.523765996247	8
0	25745	2287.9	8
0	25781	2292.323765996247	5
0	25783	2292.423765996247	8
0	25784	2292.470566727508	8
0	25786	2292.523765996247	8
0	25787	2292.570566727508	8
0	25855	2298	8
0	25891	2302.370566727508	5
0	25893	2302.470566727508	8
0	25894	2302.517367458769	8
0	25896	2302.570566727508	8
0	25897	2302.617367458769	8
0	25965	2308	8
0	26001	2312.417367458769	5
0	26003	2312.517367458769	8
0	26004	2312.56416819003	8
0	26006	2312.617367458769	8
0	26007	2312.66416819003	8
0	26076	2318.1	8
0	26111	2322.46416819003	5
0	26113	2322.56416819003	8
0	26114	2322.610968921291	8
0	26116	2322.66416819003	8
0	26118	2322.710968921291	8
0	26186	2328.1	8
0	26221	2332.510968921291	5
0	26223	2332.610968921291	8
0	26224	2332.657769652552	8
0	26227	2332.710968921291	8
0	26228	2332.757769652552	8
0	26297	2338.2	8
0	26331	2342.557769652552	5
0	26333	2342.657769652552	8
0	26335	2342.704570383813	8
0	26337	2342.757769652552	8
0	26338	2342.804570383813	8
0	26407	2348.2	8
0	26441	2352.604570383813	5
0	26444	2352.704570383813	8
0	26445	2352.751371115074	8
0	26447	2352.804570383813	8
0	26448	2352.851371115074	8
0	26517	2358.3	8
0	26551	2362.651371115074	5
0	26554	2362.751371115074	8
0	26555	2362.798171846335	8
0	26557	2362.851371115074	8
0	26558	2362.898171846335	8
0	26627	2368.3	8
0	26661	2372.698171846335	5
0	26664	2372.798171846335	8
0	26665	2372.844972577596	8
0	26667	2372.898171846335	8
0	26668	2372.944972577596	8
0	26737	2378.3	8
0	26772	2382.744972577596	5
0	26774	2382.844972577596	8
0	26775	2382.891773308857	8
0	26777	2382.944972577596	8
0	26778	2382.991773308857	8
0	26847	2388.4	8
0	26881	2392.791773308857	5
0	26884	2392.891773308857	8
0	26885	2392.938574040118	8
0	26887	2392.991773308857	8
0	26888	2393.038574040118	8
0	26957	2398.4	8
0	26991	2402.838574040118	5
0	26994	2402.938574040118	8
0	26995	2402.985374771379	8
0	26997	2403.038574040118	8
0	26999	2403.085374771379	8
0	27067	2408.5	8
0	27099	2412.885374771379	5
0	27104	2412.985374771379	8
0	27105	2413.03217550264	8
0	27108	2413.085374771379	8
0	27110	2413.13217550264	8
0	27177	2418.5	8
0	27208	2422.93217550264	5
0	27213	2423.03217550264	8
0	27216	2423.078976233901	8
0	27219	2423.13217550264	8
0	27220	2423.178976233901	8
0	27287	2428.6	8
0	27318	2432.978976233901	5
0	27324	2433.078976233901	8
0	27325	2433.125776965162	8
0	27329	2433.178976233901	8
0	27330	2433.225776965162	8
0	27397	2438.6	8
0	27426	2443.025776965162	5
0	27432	2443.125776965162	8
0	27436	2443.172577696423	8
0	27439	2443.225776965162	8
0	27440	2443.272577696423	8
0	27507	2448.7	8
0	27537	2453.072577696423	5
0	27542	2453.172577696423	8
0	27546	2453.219378427684	8
0	27548	2453.272577696423	8
0	27550	2453.319378427684	8
0	27617	2458.7	8
0	27647	2463.119378427684	5
0	27652	2463.219378427684	8
0	27653	2463.266179158945	8
0	27658	2463.319378427684	8
0	27659	2463.366179158945	8
0	27728	2468.8	8
0	27757	2473.166179158945	5
0	27760	2473.266179158945	8
0	27763	2473.312979890206	8
0	27766	2473.366179158945	8
0	27769	2473.412979890206	8
0	27837	2478.8	8
0	27867	2483.212979890206	5
0	27870	2483.312979890206	8
0	27871	2483.359780621467	8
0	27875	2483.412979890206	8
0	27877	2483.459780621467	8
0	27947	2488.9	8
0	27977	2493.259780621467	5
0	27980	2493.359780621467	8
0	27981	2493.406581352728	8
0	27985	2493.459780621467	8
0	27986	2493.506581352728	8
0	28057	2498.9	8
0	28087	2503.306581352728	5
0	28089	2503.406581352728	8
0	28091	2503.453382083989	8
0	28093	2503.506581352728	8
0	28096	2503.553382083989	8
0	28167	2509	8
0	28197	2513.353382083989	5
0	28199	2513.453382083989	8
0	28200	2513.50018281525	8
0	28203	2513.553382083989	8
0	28204	2513.60018281525	8
0	28277	2519	8
0	28307	2523.40018281525	5
0	28309	2523.50018281525	8
0	28310	2523.546983546511	8
0	28313	2523.60018281525	8
0	28314	2523.646983546511	8
0	28388	2529.1	8
0	28417	2533.446983546511	5
0	28419	2533.546983546511	8
0	28420	2533.593784277772	8
0	28422	2533.646983546511	8
0	28424	2533.693784277772	8
0	28498	2539.1	8
0	28526	2543.493784277772	5
0	28528	2543.593784277772	8
0	28530	2543.640585009033	8
0	28532	2543.693784277772	8
0	28534	2543.740585009033	8
0	28608	2549.1	8
0	28636	2553.540585009033	5
0	28638	2553.640585009033	8
0	28639	2553.687385740294	8
0	28643	2553.740585009033	8
0	28644	2553.787385740294	8
0	28719	2559.2	8
0	28746	2563.587385740294	5
0	28748	2563.687385740294	8
0	28750	2563.734186471555	8
0	28752	2563.787385740294	8
0	28753	2563.834186471555	8
0	28829	2569.2	8
0	28856	2573.634186471555	5
0	28859	2573.734186471555	8
0	28860	2573.780987202816	8
0	28862	2573.834186471555	8
0	28863	2573.880987202816	8
0	28939	2579.3	8
0	28966	2583.680987202816	5
0	28969	2583.780987202816	8
0	28970	2583.827787934077	8
0	28972	2583.880987202816	8
0	28973	2583.927787934077	8
0	29049	2589.3	8
0	29077	2593.727787934077	5
0	29079	2593.827787934077	8
0	29080	2593.874588665338	8
0	29082	2593.927787934077	8
0	29083	2593.974588665338	8
0	29159	2599.4	8
0	29187	2603.774588665338	5
0	29189	2603.874588665338	8
0	29190	2603.921389396599	8
0	29192	2603.974588665338	8
0	29193	2604.021389396599	8
0	29269	2609.4	8
0	29297	2613.821389396599	5
0	29299	2613.921389396599	8
0	29300	2613.96819012786	8
0	29302	2614.021389396599	8
0	29304	2614.06819012786	8
0	29379	2619.5	8
0	29407	2623.86819012786	5
0	29409	2623.96819012786	8
0	29410	2624.014990859121	8
0	29413	2624.06819012786	8
0	29414	2624.114990859121	8
0	29488	2629.5	8
0	29517	2633.914990859121	5
0	29519	2634.014990859121	8
0	29521	2634.061791590382	8
0	29523	2634.114990859121	8
0	29525	2634.161791590382	8
0	29597	2639.6	8
0	29627	2643.961791590382	5
0	29630	2644.061791590382	8
0	29631	2644.108592321643	8
0	29634	2644.161791590382	8
0	29635	2644.208592321643	8
0	29703	2649.6	8
0	29737	2654.008592321643	5
0	29740	2654.108592321643	8
0	29742	2654.155393052904	8
0	29744	2654.208592321643	8
0	29745	2654.255393052904	8
0	29813	2659.7	8
0	29848	2664.055393052904	5
0	29851	2664.155393052904	8
0	29852	2664.202193784165	8
0	29854	2664.255393052904	8
0	29855	2664.302193784165	8
0	29922	2669.7	8
0	29958	2674.102193784165	5
0	29961	2674.202193784165	8
0	29962	2674.248994515426	8
0	29964	2674.302193784165	8
0	29965	2674.348994515426	8
0	30033	2679.8	8
0	30068	2684.148994515426	5
0	30071	2684.248994515426	8
0	30072	2684.295795246687	8
0	30074	2684.348994515426	8
0	30075	2684.395795246687	8
0	30143	2689.8	8
0	30178	2694.195795246687	5
0	30181	2694.295795246687	8
0	30182	2694.342595977948	8
0	30184	2694.395795246687	8
0	30185	2694.442595977948	8
0	30253	2699.8	8
0	30285	2704.242595977948	5
0	30290	2704.342595977948	8
0	30292	2704.389396709209	8
0	30294	2704.442595977948	8
0	30295	2704.489396709209	8
0	30363	2709.9	8
0	30395	2714.289396709209	5
0	30400	2714.389396709209	8
0	30402	2714.43619744047	8
0	30404	2714.489396709209	8
0	30405	2714.53619744047	8
0	30473	2719.9	8
0	30505	2724.33619744047	5
0	30510	2724.43619744047	8
0	30511	2724.482998171731	8
0	30514	2724.53619744047	8
0	30515	2724.582998171731	8
0	30583	2730	8
0	30613	2734.382998171731	5
0	30617	2734.482998171731	8
0	30621	2734.529798902992	8
0	30623	2734.582998171731	8
0	30625	2734.629798902992	8
0	30693	2740	8
0	30723	2744.429798902992	5
0	30727	2744.529798902992	8
0	30729	2744.576599634253	8
0	30733	2744.629798902992	8
0	30735	2744.676599634253	8
0	30804	2750.1	8
0	30833	2754.476599634253	5
0	30837	2754.576599634253	8
0	30838	2754.623400365514	8
0	30843	2754.676599634253	8
0	30845	2754.723400365514	8
0	30914	2760.1	8
0	30942	2764.523400365514	5
0	30945	2764.623400365514	8
0	30948	2764.670201096775	8
0	30951	2764.723400365514	8
0	30955	2764.770201096775	8
0	31024	2770.2	8
0	31052	2774.570201096775	5
0	31055	2774.670201096775	8
0	31057	2774.717001828036	8
0	31061	2774.770201096775	8
0	31062	2774.817001828036	8
0	31134	2780.2	8
0	31162	2784.617001828036	5
0	31165	2784.717001828036	8
0	31167	2784.763802559297	8
0	31169	2784.817001828036	8
0	31172	2784.863802559297	8
0	31244	2790.3	8
0	31272	2794.663802559297	5
0	31275	2794.763802559297	8
0	31277	2794.810603290558	8
0	31279	2794.863802559297	8
0	31282	2794.910603290558	8
0	31354	2800.3	8
0	31383	2804.710603290558	5
0	31385	2804.810603290558	8
0	31386	2804.857404021819	8
0	31389	2804.910603290558	8
0	31390	2804.957404021819	8
0	31464	2810.4	8
0	31493	2814.757404021819	5
0	31495	2814.857404021819	8
0	31496	2814.90420475308	8
0	31498	2814.957404021819	8
0	31500	2815.00420475308	8
0	31574	2820.4	8
0	31603	2824.80420475308	5
0	31605	2824.90420475308	8
0	31606	2824.951005484341	8
0	31608	2825.00420475308	8
0	31611	2825.051005484341	8
0	31684	2830.5	8
0	31713	2834.851005484341	5
0	31715	2834.951005484341	8
0	31716	2834.997806215602	8
0	31719	2835.051005484341	8
0	31720	2835.097806215602	8
0	31794	2840.5	8
0	31823	2844.897806215602	5
0	31825	2844.997806215602	8
0	31826	2845.044606946863	8
0	31829	2845.097806215602	8
0	31831	2845.144606946863	8
0	31904	2850.5	8
0	31933	2854.944606946863	5
0	31935	2855.044606946863	8
0	31937	2855.091407678124	8
0	31940	2855.144606946863	8
0	31941	2855.191407678124	8
0	32014	2860.6	8
0	32043	2864.991407678124	5
0	32046	2865.091407678124	8
0	32048	2865.138208409385	8
0	32050	2865.191407678124	8
0	32051	2865.238208409385	8
0	32124	2870.6	8
0	32153	2875.038208409385	5
0	32157	2875.138208409385	8
0	32158	2875.185009140646	8
0	32160	2875.238208409385	8
0	32161	2875.285009140646	8
0	32234	2880.7	8
0	32264	2885.085009140646	5
0	32267	2885.185009140646	8
0	32268	2885.231809871907	8
0	32270	2885.285009140646	8
0	32271	2885.331809871907	8
0	32344	2890.7	8
0	32375	2895.131809871907	5
0	32377	2895.231809871907	8
0	32378	2895.278610603168	8
0	32380	2895.331809871907	8
0	32381	2895.378610603168	8
0	32455	2900.8	8
0	32485	2905.178610603168	5
0	32487	2905.278610603168	8
0	32488	2905.325411334429	8
0	32490	2905.378610603168	8
0	32491	2905.425411334429	8
0	32565	2910.8	8
0	32595	2915.225411334429	5
0	32597	2915.325411334429	8
0	32598	2915.37221206569	8
0	32600	2915.425411334429	8
0	32601	2915.47221206569	8
0	32675	2920.9	8
0	32705	2925.27221206569	5
0	32707	2925.37221206569	8
0	32708	2925.419012796951	8
0	32710	2925.47221206569	8
0	32711	2925.519012796951	8
0	32785	2930.9	8
0	32815	2935.319012796951	5
0	32817	2935.419012796951	8
0	32818	2935.465813528212	8
0	32820	2935.519012796951	8
0	32821	2935.565813528212	8
0	32895	2941	8
0	32925	2945.365813528212	5
0	32927	2945.465813528212	8
0	32928	2945.512614259473	8
0	32930	2945.565813528212	8
0	32931	2945.612614259473	8
0	33005	2951	8
0	33035	2955.412614259473	5
0	33037	2955.512614259473	8
0	33038	2955.559414990734	8
0	33040	2955.612614259473	8
0	33041	2955.659414990734	8
0	33116	2961.1	8
0	33145	2965.459414990734	5
0	33147	2965.559414990734	8
0	33148	2965.606215721995	8
0	33150	2965.659414990734	8
0	33152	2965.706215721995	8
0	33226	2971.1	8
0	33255	2975.506215721995	5
0	33257	2975.606215721995	8
0	33258	2975.653016453256	8
0	33261	2975.706215721995	8
0	33262	2975.753016453256	8
0	33337	2981.2	8
0	33365	2985.553016453256	5
0	33367	2985.653016453256	8
0	33368	2985.699817184517	8
0	33371	2985.753016453256	8
0	33372	2985.799817184517	8
0	33447	2991.2	8
0	33475	2995.599817184517	5
0	33477	2995.699817184517	8
0	33479	2995.746617915778	8
0	33481	2995.799817184517	8
0	33482	2995.846617915778	8
0	33557	3001.2	8
0	33585	3005.646617915778	5
0	33588	3005.746617915778	8
0	33589	3005.793418647039	8
0	33591	3005.846617915778	8
0	33592	3005.893418647039	8
0	33667	3011.3	8
0	33695	3015.693418647039	5
0	33698	3015.793418647039	8
0	33699	3015.8402193783	8
0	33701	3015.893418647039	8
0	33702	3015.9402193783	8
0	33777	3021.3	8
0	33806	3025.7402193783	5
0	33808	3025.8402193783	8
0	33809	3025.887020109561	8
0	33811	3025.9402193783	8
0	33812	3025.987020109561	8
0	33887	3031.4	8
0	33916	3035.787020109561	5
0	33918	3035.887020109561	8
0	33919	3035.933820840822	8
0	33921	3035.987020109561	8
0	33922	3036.033820840822	8
0	33997	3041.4	8
0	34026	3045.833820840822	5
0	34028	3045.933820840822	8
0	34029	3045.980621572083	8
0	34031	3046.033820840822	8
0	34033	3046.080621572083	8
0	34107	3051.5	8
0	34136	3055.880621572083	5
0	34138	3055.980621572083	8
0	34139	3056.027422303344	8
0	34142	3056.080621572083	8
0	34143	3056.127422303344	8
0	34217	3061.5	8
0	34246	3065.927422303344	5
0	34248	3066.027422303344	8
0	34250	3066.074223034605	8
0	34252	3066.127422303344	8
0	34254	3066.174223034605	8
0	34327	3071.6	8
0	34356	3075.974223034605	5
0	34359	3076.074223034605	8
0	34360	3076.121023765866	8
0	34363	3076.174223034605	8
0	34364	3076.221023765866	8
0	34437	3081.6	8
0	34465	3086.021023765866	5
0	34469	3086.121023765866	8
0	34471	3086.167824497127	8
0	34473	3086.221023765866	8
0	34474	3086.267824497127	8
0	34547	3091.7	8
0	34573	3096.067824497127	5
0	34579	3096.167824497127	8
0	34580	3096.214625228388	8
0	34583	3096.267824497127	8
0	34584	3096.314625228388	8
0	34657	3101.7	8
0	34681	3106.114625228388	5
0	34686	3106.214625228388	8
0	34687	3106.261425959649	8
0	34692	3106.314625228388	8
0	34693	3106.361425959649	8
0	34768	3111.8	8
0	34791	3116.161425959649	5
0	34794	3116.261425959649	8
0	34795	3116.30822669091	8
0	34799	3116.361425959649	8
0	34800	3116.40822669091	8
0	34877	3121.8	8
0	34901	3126.20822669091	5
0	34903	3126.30822669091	8
0	34905	3126.355027422171	8
0	34907	3126.40822669091	8
0	34910	3126.455027422171	8
0	34987	3131.9	8
0	35011	3136.255027422171	5
0	35013	3136.355027422171	8
0	35014	3136.401828153432	8
0	35016	3136.455027422171	8
0	35018	3136.501828153432	8
0	35097	3141.9	8
0	35121	3146.301828153432	5
0	35123	3146.401828153432	8
0	35124	3146.448628884693	8
0	35126	3146.501828153432	8
0	35127	3146.548628884693	8
0	35207	3152	8
0	35231	3156.348628884693	5
0	35233	3156.448628884693	8
0	35234	3156.495429615954	8
0	35236	3156.548628884693	8
0	35237	3156.595429615954	8
0	35317	3162	8
0	35341	3166.395429615954	5
0	35343	3166.495429615954	8
0	35344	3166.542230347215	8
0	35346	3166.595429615954	8
0	35347	3166.642230347215	8
0	35427	3172	8
0	35451	3176.442230347215	5
0	35453	3176.542230347215	8
0	35454	3176.589031078476	8
0	35456	3176.642230347215	8
0	35457	3176.689031078476	8
0	35538	3182.1	8
0	35561	3186.489031078476	5
0	35563	3186.589031078476	8
0	35564	3186.635831809737	8
0	35566	3186.689031078476	8
0	35568	3186.735831809737	8
0	35648	3192.1	8
0	35671	3196.535831809737	5
0	35673	3196.635831809737	8
0	35674	3196.682632540998	8
0	35677	3196.735831809737	8
0	35678	3196.782632540998	8
0	35759	3202.2	8
0	35781	3206.582632540998	5
0	35783	3206.682632540998	8
0	35785	3206.729433272259	8
0	35787	3206.782632540998	8
0	35788	3206.829433272259	8
0	35869	3212.2	8
0	35891	3216.629433272259	5
0	35894	3216.729433272259	8
0	35895	3216.77623400352	8
0	35897	3216.829433272259	8
0	35898	3216.87623400352	8
0	35979	3222.3	8
0	36001	3226.67623400352	5
0	36004	3226.77623400352	8
0	36005	3226.823034734781	8
0	36007	3226.87623400352	8
0	36008	3226.923034734781	8
0	36089	3232.3	8
0	36112	3236.723034734781	5
0	36114	3236.823034734781	8
0	36115	3236.869835466042	8
0	36117	3236.923034734781	8
0	36118	3236.969835466042	8
0	36199	3242.4	8
0	36222	3246.769835466042	5
0	36224	3246.869835466042	8
0	36225	3246.916636197303	8
0	36227	3246.969835466042	8
0	36228	3247.016636197303	8
0	36309	3252.4	8
0	36332	3256.816636197303	5
0	36334	3256.916636197303	8
0	36335	3256.963436928564	8
0	36337	3257.016636197303	8
0	36339	3257.063436928564	8
0	36419	3262.5	8
0	36442	3266.863436928564	5
0	36444	3266.963436928564	8
0	36445	3267.010237659825	8
0	36448	3267.063436928564	8
0	36449	3267.110237659825	8
0	36529	3272.5	8
0	36552	3276.910237659825	5
0	36554	3277.010237659825	8
0	36556	3277.057038391086	8
0	36558	3277.110237659825	8
0	36560	3277.157038391086	8
0	36639	3282.6	8
0	36662	3286.957038391086	5
0	36665	3287.057038391086	8
0	36666	3287.103839122347	8
0	36669	3287.157038391086	8
0	36670	3287.203839122347	8
0	36749	3292.6	8
0	36772	3297.003839122347	5
0	36775	3297.103839122347	8
0	36777	3297.150639853608	8
0	36779	3297.203839122347	8
0	36780	3297.250639853608	8
0	36859	3302.7	8
0	36883	3307.050639853608	5
0	36886	3307.150639853608	8
0	36887	3307.197440584869	8
0	36889	3307.250639853608	8
0	36890	3307.297440584869	8
0	36969	3312.7	8
0	36993	3317.097440584869	5
0	36996	3317.197440584869	8
0	36997	3317.24424131613	8
0	36999	3317.297440584869	8
0	37000	3317.34424131613	8
0	37079	3322.7	8
0	37104	3327.14424131613	5
0	37106	3327.24424131613	8
0	37107	3327.291042047391	8
0	37109	3327.34424131613	8
0	37110	3327.391042047391	8
0	37190	3332.8	8
0	37214	3337.191042047391	5
0	37216	3337.291042047391	8
0	37217	3337.337842778652	8
0	37219	3337.391042047391	8
0	37220	3337.437842778652	8
0	37300	3342.8	8
0	37324	3347.237842778652	5
0	37326	3347.337842778652	8
0	37327	3347.384643509913	8
0	37329	3347.437842778652	8
0	37330	3347.484643509913	8
0	37410	3352.9	8
0	37434	3357.284643509913	5
0	37436	3357.384643509913	8
0	37437	3357.431444241174	8
0	37439	3357.484643509913	8
0	37440	3357.531444241174	8
0	37520	3362.9	8
0	37544	3367.331444241174	5
0	37546	3367.431444241174	8
0	37547	3367.478244972435	8
0	37549	3367.531444241174	8
0	37550	3367.578244972435	8
0	37630	3373	8
0	37654	3377.378244972435	5
0	37656	3377.478244972435	8
0	37657	3377.525045703696	8
0	37659	3377.578244972435	8
0	37660	3377.625045703696	8
0	37740	3383	8
0	37764	3387.425045703696	5
0	37766	3387.525045703696	8
0	37767	3387.571846434957	8
0	37769	3387.625045703696	8
0	37770	3387.671846434957	8
0	37851	3393.1	8
0	37874	3397.471846434957	5
0	37876	3397.571846434957	8
0	37877	3397.618647166218	8
0	37879	3397.671846434957	8
0	37881	3397.718647166218	8
0	37961	3403.1	8
0	37984	3407.518647166218	5
0	37986	3407.618647166218	8
0	37987	3407.665447897479	8
0	37990	3407.718647166218	8
0	37991	3407.765447897479	8
0	38072	3413.2	8
0	38094	3417.565447897479	5
0	38096	3417.665447897479	8
0	38098	3417.71224862874	8
0	38100	3417.765447897479	8
0	38101	3417.81224862874	8
0	38182	3423.2	8
0	38204	3427.61224862874	5
0	38207	3427.71224862874	8
0	38208	3427.759049360001	8
0	38210	3427.81224862874	8
0	38211	3427.859049360001	8
0	38292	3433.3	8
0	38314	3437.659049360001	5
0	38317	3437.759049360001	8
0	38318	3437.805850091262	8
0	38320	3437.859049360001	8
0	38321	3437.905850091262	8
0	38402	3443.3	8
0	38425	3447.705850091262	5
0	38427	3447.805850091262	8
0	38428	3447.852650822523	8
0	38430	3447.905850091262	8
0	38431	3447.952650822523	8
0	38512	3453.4	8
0	38535	3457.752650822523	5
0	38537	3457.852650822523	8
0	38538	3457.899451553784	8
0	38540	3457.952650822523	8
0	38541	3457.999451553784	8
0	38622	3463.4	8
0	38644	3467.799451553784	5
0	38647	3467.899451553784	8
0	38648	3467.946252285045	8
0	38650	3467.999451553784	8
0	38651	3468.046252285045	8
0	38732	3473.4	8
0	38755	3477.846252285045	5
0	38757	3477.946252285045	8
0	38758	3477.993053016306	8
0	38760	3478.046252285045	8
0	38762	3478.093053016306	8
0	38842	3483.5	8
0	38864	3487.893053016306	5
0	38867	3487.993053016306	8
0	38868	3488.039853747567	8
0	38871	3488.093053016306	8
0	38873	3488.139853747567	8
0	38952	3493.5	8
0	38974	3497.939853747567	5
0	38977	3498.039853747567	8
0	38979	3498.086654478828	8
0	38982	3498.139853747567	8
0	38983	3498.186654478828	8
0	39062	3503.6	8
0	39084	3507.986654478828	5
0	39087	3508.086654478828	8
0	39090	3508.133455210089	8
0	39092	3508.186654478828	8
0	39093	3508.233455210089	8
0	39172	3513.6	8
0	39194	3518.033455210089	5
0	39198	3518.133455210089	8
0	39199	3518.18025594135	8
0	39202	3518.233455210089	8
0	39203	3518.28025594135	8
0	39282	3523.7	8
0	39305	3528.08025594135	5
0	39308	3528.18025594135	8
0	39310	3528.227056672611	8
0	39312	3528.28025594135	8
0	39313	3528.327056672611	8
0	39392	3533.7	8
0	39415	3538.127056672611	5
0	39418	3538.227056672611	8
0	39419	3538.273857403872	8
0	39422	3538.327056672611	8
0	39423	3538.373857403872	8
0	39503	3543.8	8
0	39526	3548.173857403872	5
0	39528	3548.273857403872	8
0	39529	3548.320658135133	8
0	39531	3548.373857403872	8
0	39533	3548.420658135133	8
0	39613	3553.8	8
0	39636	3558.220658135133	5
0	39638	3558.320658135133	8
0	39639	3558.367458866394	8
0	39641	3558.420658135133	8
0	39642	3558.467458866394	8
0	39723	3563.9	8
0	39745	3568.267458866394	5
0	39748	3568.367458866394	8
0	39749	3568.414259597655	8
0	39751	3568.467458866394	8
0	39752	3568.514259597655	8
0	39833	3573.9	8
0	39855	3578.314259597655	5
0	39858	3578.414259597655	8
0	39859	3578.461060328916	8
0	39861	3578.514259597655	8
0	39862	3578.561060328916	8
0	39943	3584	8
0	39965	3588.361060328916	5
0	39967	3588.461060328916	8
0	39968	3588.507861060177	8
0	39970	3588.561060328916	8
0	39972	3588.607861060177	8
0	40053	3594	8
0	40075	3598.407861060177	5
0	40077	3598.507861060177	8
0	40078	3598.554661791438	8
0	40080	3598.607861060177	8
0	40081	3598.654661791438	8
0	40164	3604.1	8
0	40185	3608.454661791438	5
0	40187	3608.554661791438	8
0	40188	3608.601462522699	8
0	40190	3608.654661791438	8
0	40192	3608.701462522699	8
0	40274	3614.1	8
0	40295	3618.501462522699	5
0	40297	3618.601462522699	8
0	40298	3618.64826325396	8
0	40301	3618.701462522699	8
0	40302	3618.74826325396	8
0	40385	3624.2	8
0	40405	3628.54826325396	5
0	40407	3628.64826325396	8
0	40408	3628.695063985221	8
0	40411	3628.74826325396	8
0	40412	3628.795063985221	8
0	40495	3634.2	8
0	40515	3638.595063985221	5
0	40517	3638.695063985221	8
0	40519	3638.741864716482	8
0	40521	3638.795063985221	8
0	40522	3638.841864716482	8
0	40605	3644.2	8
0	40625	3648.641864716482	5
0	40628	3648.741864716482	8
0	40629	3648.788665447743	8
0	40631	3648.841864716482	8
0	40632	3648.888665447743	8
0	40715	3654.3	8
0	40735	3658.688665447743	5
0	40738	3658.788665447743	8
0	40739	3658.835466179004	8
0	40741	3658.888665447743	8
0	40742	3658.935466179004	8
0	40823	3664.3	8
0	40846	3668.735466179004	5
0	40848	3668.835466179004	8
0	40849	3668.882266910265	8
0	40851	3668.935466179004	8
0	40852	3668.982266910265	8
0	40931	3674.4	8
0	40956	3678.782266910265	5
0	40958	3678.882266910265	8
0	40959	3678.929067641526	8
0	40961	3678.982266910265	8
0	40962	3679.029067641526	8
0	41039	3684.4	8
0	41066	3688.829067641526	5
0	41068	3688.929067641526	8
0	41069	3688.975868372787	8
0	41071	3689.029067641526	8
0	41073	3689.075868372787	8
0	41148	3694.5	8
0	41176	3698.875868372787	5
0	41178	3698.975868372787	8
0	41179	3699.022669104048	8
0	41182	3699.075868372787	8
0	41183	3699.122669104048	8
0	41258	3704.5	8
0	41286	3708.922669104048	5
0	41288	3709.022669104048	8
0	41290	3709.069469835309	8
0	41292	3709.122669104048	8
0	41294	3709.169469835309	8
0	41368	3714.6	8
0	41396	3718.969469835309	5
0	41399	3719.069469835309	8
0	41400	3719.11627056657	8
0	41403	3719.169469835309	8
0	41404	3719.21627056657	8
0	41478	3724.6	8
0	41506	3729.01627056657	5
0	41509	3729.11627056657	8
0	41511	3729.163071297831	8
0	41513	3729.21627056657	8
0	41514	3729.263071297831	8
0	41588	3734.7	8
0	41616	3739.063071297831	5
0	41620	3739.163071297831	8
0	41621	3739.209872029092	8
0	41623	3739.263071297831	8
0	41624	3739.309872029092	8
0	41698	3744.7	8
0	41726	3749.109872029092	5
0	41730	3749.209872029092	8
0	41731	3749.256672760353	8
0	41733	3749.309872029092	8
0	41734	3749.356672760353	8
0	41809	3754.8	8
0	41837	3759.156672760353	5
0	41840	3759.256672760353	8
0	41841	3759.303473491614	8
0	41843	3759.356672760353	8
0	41844	3759.403473491614	8
0	41918	3764.8	8
0	41947	3769.203473491614	5
0	41950	3769.303473491614	8
0	41951	3769.350274222875	8
0	41953	3769.403473491614	8
0	41954	3769.450274222875	8
0	42028	3774.9	8
0	42057	3779.250274222875	5
0	42059	3779.350274222875	8
0	42060	3779.397074954136	8
0	42063	3779.450274222875	8
0	42064	3779.497074954136	8
0	42135	3784.9	8
0	42167	3789.297074954136	5
0	42169	3789.397074954136	8
0	42170	3789.443875685397	8
0	42172	3789.497074954136	8
0	42174	3789.543875685397	8
0	42243	3794.9	8
0	42277	3799.343875685397	5
0	42279	3799.443875685397	8
0	42280	3799.490676416658	8
0	42282	3799.543875685397	8
0	42283	3799.590676416658	8
0	42355	3805	8
0	42387	3809.390676416658	5
0	42389	3809.490676416658	8
0	42390	3809.537477147919	8
0	42392	3809.590676416658	8
0	42394	3809.637477147919	8
0	42463	3815	8
0	42497	3819.437477147919	5
0	42499	3819.537477147919	8
0	42500	3819.58427787918	8
0	42502	3819.637477147919	8
0	42503	3819.68427787918	8
0	42574	3825.1	8
0	42607	3829.48427787918	5
0	42609	3829.58427787918	8
0	42610	3829.631078610441	8
0	42612	3829.68427787918	8
0	42614	3829.731078610441	8
0	42683	3835.1	8
0	42717	3839.531078610441	5
0	42719	3839.631078610441	8
0	42720	3839.677879341702	8
0	42723	3839.731078610441	8
0	42724	3839.777879341702	8
0	42794	3845.2	8
0	42827	3849.577879341702	5
0	42829	3849.677879341702	8
0	42831	3849.724680072963	8
0	42833	3849.777879341702	8
0	42834	3849.824680072963	8
0	42904	3855.2	8
0	42937	3859.624680072963	5
0	42940	3859.724680072963	8
0	42941	3859.771480804224	8
0	42943	3859.824680072963	8
0	42944	3859.871480804224	8
0	43014	3865.3	8
0	43047	3869.671480804224	5
0	43050	3869.771480804224	8
0	43051	3869.818281535485	8
0	43053	3869.871480804224	8
0	43054	3869.918281535485	8
0	43124	3875.3	8
0	43158	3879.718281535485	5
0	43160	3879.818281535485	8
0	43161	3879.865082266746	8
0	43163	3879.918281535485	8
0	43164	3879.965082266746	8
0	43234	3885.4	8
0	43268	3889.765082266746	5
0	43270	3889.865082266746	8
0	43271	3889.911882998007	8
0	43273	3889.965082266746	8
0	43274	3890.011882998007	8
0	43344	3895.4	8
0	43378	3899.811882998007	5
0	43380	3899.911882998007	8
0	43381	3899.958683729268	8
0	43383	3900.011882998007	8
0	43385	3900.058683729268	8
0	43454	3905.5	8
0	43488	3909.858683729268	5
0	43490	3909.958683729268	8
0	43491	3910.005484460529	8
0	43494	3910.058683729268	8
0	43495	3910.105484460529	8
0	43564	3915.5	8
0	43598	3919.905484460529	5
0	43600	3920.005484460529	8
0	43602	3920.05228519179	8
0	43604	3920.105484460529	8
0	43606	3920.15228519179	8
0	43674	3925.6	8
0	43708	3929.95228519179	5
0	43711	3930.05228519179	8
0	43712	3930.099085923051	8
0	43715	3930.15228519179	8
0	43716	3930.199085923051	8
0	43784	3935.6	8
0	43818	3939.999085923051	5
0	43821	3940.099085923051	8
0	43823	3940.145886654312	8
0	43825	3940.199085923051	8
0	43826	3940.245886654312	8
0	43894	3945.6	8
0	43928	3950.045886654312	5
0	43932	3950.145886654312	8
0	43933	3950.192687385573	8
0	43935	3950.245886654312	8
0	43936	3950.292687385573	8
0	44004	3955.7	8
0	44039	3960.092687385573	5
0	44042	3960.192687385573	8
0	44043	3960.239488116834	8
0	44045	3960.292687385573	8
0	44046	3960.339488116834	8
0	44114	3965.7	8
0	44150	3970.139488116834	5
0	44152	3970.239488116834	8
0	44153	3970.286288848095	8
0	44155	3970.339488116834	8
0	44156	3970.386288848095	8
0	44225	3975.8	8
0	44260	3980.186288848095	5
0	44262	3980.286288848095	8
0	44263	3980.333089579356	8
0	44265	3980.386288848095	8
0	44266	3980.433089579356	8
0	44335	3985.8	8
0	44370	3990.233089579356	5
0	44372	3990.333089579356	8
0	44373	3990.379890310617	8
0	44375	3990.433089579356	8
0	44376	3990.479890310617	8
0	44445	3995.9	8
0	44480	4000.279890310617	5
0	44482	4000.379890310617	8
0	44483	4000.426691041878	8
0	44485	4000.479890310617	8
0	44486	4000.526691041878	8
0	44554	4005.9	8
0	44590	4010.326691041878	5
0	44592	4010.426691041878	8
0	44593	4010.473491773139	8
0	44595	4010.526691041878	8
0	44596	4010.573491773139	8
0	44665	4016	8
0	44699	4020.373491773139	5
0	44702	4020.473491773139	8
0	44703	4020.5202925044	8
0	44705	4020.573491773139	8
0	44706	4020.6202925044	8
0	44774	4026	8
0	44810	4030.4202925044	5
0	44812	4030.5202925044	8
0	44813	4030.567093235661	8
0	44815	4030.6202925044	8
0	44816	4030.667093235661	8
0	44885	4036.1	8
0	44919	4040.467093235661	5
0	44922	4040.567093235661	8
0	44923	4040.613893966922	8
0	44925	4040.667093235661	8
0	44927	4040.713893966922	8
0	44992	4046.1	8
0	45029	4050.513893966922	5
0	45032	4050.613893966922	8
0	45033	4050.660694698183	8
0	45036	4050.713893966922	8
0	45037	4050.760694698183	8
0	45103	4056.2	8
0	45139	4060.560694698183	5
0	45141	4060.660694698183	8
0	45144	4060.707495429444	8
0	45146	4060.760694698183	8
0	45147	4060.807495429444	8
0	45211	4066.2	8
0	45249	4070.607495429444	5
0	45252	4070.707495429444	8
0	45253	4070.754296160705	8
0	45256	4070.807495429444	8
0	45257	4070.854296160705	8
0	45321	4076.3	8
0	45359	4080.654296160705	5
0	45362	4080.754296160705	8
0	45363	4080.801096891966	8
0	45365	4080.854296160705	8
0	45367	4080.901096891966	8
0	45431	4086.3	8
0	45470	4090.701096891966	5
0	45472	4090.801096891966	8
0	45473	4090.847897623227	8
0	45476	4090.901096891966	8
0	45477	4090.947897623227	8
0	45541	4096.4	8
0	45580	4100.747897623227	5
0	45582	4100.847897623227	8
0	45583	4100.894698354488	8
0	45585	4100.947897623227	8
0	45586	4100.994698354488	8
0	45650	4106.4	8
0	45689	4110.794698354488	5
0	45692	4110.894698354488	8
0	45693	4110.941499085749	8
0	45695	4110.994698354488	8
0	45696	4111.041499085749	8
0	45760	4116.4	8
0	45798	4120.841499085749	5
0	45801	4120.941499085749	8
0	45803	4120.98829981701	8
0	45805	4121.041499085749	8
0	45807	4121.08829981701	8
0	45870	4126.5	8
0	45906	4130.88829981701	5
0	45910	4130.98829981701	8
0	45912	4131.035100548271	8
0	45915	4131.08829981701	8
0	45918	4131.135100548271	8
0	45980	4136.5	8
0	46014	4140.935100548271	5
0	46018	4141.035100548271	8
0	46020	4141.081901279532	8
0	46025	4141.135100548271	8
0	46027	4141.181901279532	8
0	46090	4146.6	8
0	46123	4150.981901279532	5
0	46127	4151.081901279532	8
0	46128	4151.128702010793	8
0	46133	4151.181901279532	8
0	46134	4151.228702010793	8
0	46199	4156.6	8
0	46233	4161.028702010793	5
0	46236	4161.128702010793	8
0	46238	4161.175502742054	8
0	46241	4161.228702010793	8
0	46242	4161.275502742054	8
0	46309	4166.7	8
0	46344	4171.075502742054	5
0	46347	4171.175502742054	8
0	46348	4171.222303473315	8
0	46350	4171.275502742054	8
0	46351	4171.322303473315	8
0	46419	4176.7	8
0	46454	4181.122303473315	5
0	46457	4181.222303473315	8
0	46458	4181.269104204576	8
0	46460	4181.322303473315	8
0	46461	4181.369104204576	8
0	46530	4186.8	8
0	46565	4191.169104204576	5
0	46567	4191.269104204576	8
0	46568	4191.315904935837	8
0	46570	4191.369104204576	8
0	46571	4191.415904935837	8
0	46640	4196.8	8
0	46675	4201.215904935837	5
0	46677	4201.315904935837	8
0	46678	4201.362705667098	8
0	46680	4201.415904935837	8
0	46681	4201.462705667098	8
0	46750	4206.9	8
0	46785	4211.262705667098	5
0	46787	4211.362705667098	8
0	46788	4211.409506398359	8
0	46790	4211.462705667098	8
0	46791	4211.509506398359	8
0	46860	4216.9	8
0	46895	4221.309506398359	5
0	46897	4221.409506398359	8
0	46898	4221.45630712962	8
0	46900	4221.509506398359	8
0	46901	4221.55630712962	8
0	46970	4227	8
0	47005	4231.35630712962	5
0	47007	4231.45630712962	8
0	47008	4231.503107860881	8
0	47010	4231.55630712962	8
0	47011	4231.603107860881	8
0	47080	4237	8
0	47115	4241.403107860881	5
0	47117	4241.503107860881	8
0	47118	4241.549908592142	8
0	47120	4241.603107860881	8
0	47121	4241.649908592142	8
0	47191	4247.1	8
0	47225	4251.449908592142	5
0	47227	4251.549908592142	8
0	47228	4251.596709323403	8
0	47230	4251.649908592142	8
0	47231	4251.696709323403	8
0	47301	4257.1	8
0	47335	4261.496709323403	5
0	47337	4261.596709323403	8
0	47338	4261.643510054664	8
0	47340	4261.696709323403	8
0	47342	4261.743510054664	8
0	47411	4267.1	8
0	47445	4271.543510054664	5
0	47447	4271.643510054664	8
0	47448	4271.690310785925	8
0	47451	4271.743510054664	8
0	47452	4271.790310785925	8
0	47522	4277.2	8
0	47555	4281.590310785925	5
0	47557	4281.690310785925	8
0	47559	4281.737111517186	8
0	47561	4281.790310785925	8
0	47562	4281.837111517186	8
0	47631	4287.2	8
0	47665	4291.637111517186	5
0	47668	4291.737111517186	8
0	47669	4291.783912248447	8
0	47671	4291.837111517186	8
0	47672	4291.883912248447	8
0	47742	4297.3	8
0	47775	4301.683912248447	5
0	47778	4301.783912248447	8
0	47779	4301.830712979708	8
0	47781	4301.883912248447	8
0	47782	4301.930712979708	8
0	47851	4307.3	8
0	47886	4311.730712979708	5
0	47888	4311.830712979708	8
0	47889	4311.877513710969	8
0	47891	4311.930712979708	8
0	47892	4311.977513710969	8
0	47961	4317.4	8
0	47996	4321.777513710969	5
0	47998	4321.877513710969	8
0	47999	4321.92431444223	8
0	48001	4321.977513710969	8
0	48002	4322.02431444223	8
0	48068	4327.4	8
0	48106	4331.82431444223	5
0	48108	4331.92431444223	8
0	48109	4331.971115173491	8
0	48111	4332.02431444223	8
0	48113	4332.071115173491	8
0	48178	4337.5	8
0	48216	4341.871115173491	5
0	48218	4341.971115173491	8
0	48219	4342.017915904752	8
0	48222	4342.071115173491	8
0	48223	4342.117915904752	8
0	48286	4347.5	8
0	48326	4351.917915904752	5
0	48328	4352.017915904752	8
0	48330	4352.064716636013	8
0	48332	4352.117915904752	8
0	48334	4352.164716636013	8
0	48398	4357.6	8
0	48436	4361.964716636013	5
0	48439	4362.064716636013	8
0	48440	4362.111517367274	8
0	48443	4362.164716636013	8
0	48444	4362.211517367274	8
0	48506	4367.6	8
0	48546	4372.011517367274	5
0	48549	4372.111517367274	8
0	48551	4372.158318098535	8
0	48553	4372.211517367274	8
0	48554	4372.258318098535	8
0	48616	4377.7	8
0	48657	4382.058318098535	5
0	48660	4382.158318098535	8
0	48661	4382.205118829796	8
0	48663	4382.258318098535	8
0	48664	4382.305118829796	8
0	48725	4387.7	8
0	48767	4392.105118829796	5
0	48770	4392.205118829796	8
0	48771	4392.251919561057	8
0	48773	4392.305118829796	8
0	48774	4392.351919561057	8
0	48836	4397.8	8
0	48878	4402.151919561057	5
0	48880	4402.251919561057	8
0	48881	4402.298720292318	8
0	48883	4402.351919561057	8
0	48884	4402.398720292318	8
0	48946	4407.8	8
0	48988	4412.198720292318	5
0	48990	4412.298720292318	8
0	48991	4412.345521023579	8
0	48993	4412.398720292318	8
0	48994	4412.445521023579	8
0	49056	4417.8	8
0	49098	4422.245521023579	5
0	49100	4422.345521023579	8
0	49101	4422.39232175484	8
0	49103	4422.445521023579	8
0	49104	4422.49232175484	8
0	49166	4427.9	8
0	49208	4432.29232175484	5
0	49210	4432.39232175484	8
0	49211	4432.439122486101	8
0	49213	4432.49232175484	8
0	49214	4432.539122486101	8
0	49276	4437.9	8
0	49318	4442.339122486101	5
0	49320	4442.439122486101	8
0	49321	4442.485923217362	8
0	49323	4442.539122486101	8
0	49324	4442.585923217362	8
0	49386	4448	8
0	49428	4452.385923217362	5
0	49430	4452.485923217362	8
0	49431	4452.532723948623	8
0	49433	4452.585923217362	8
0	49434	4452.632723948623	8
0	49496	4458	8
0	49538	4462.432723948623	5
0	49540	4462.532723948623	8
0	49541	4462.579524679884	8
0	49543	4462.632723948623	8
0	49544	4462.679524679884	8
0	49607	4468.1	8
0	49648	4472.479524679884	5
0	49650	4472.579524679884	8
0	49651	4472.626325411145	8
0	49653	4472.679524679884	8
0	49655	4472.726325411145	8
0	49717	4478.1	8
0	49758	4482.526325411145	5
0	49760	4482.626325411145	8
0	49761	4482.673126142406	8
0	49764	4482.726325411145	8
0	49765	4482.773126142406	8
0	49828	4488.2	8
0	49868	4492.573126142406	5
0	49870	4492.673126142406	8
0	49872	4492.719926873667	8
0	49874	4492.773126142406	8
0	49875	4492.819926873667	8
0	49938	4498.2	8
0	49978	4502.619926873667	5
0	49981	4502.719926873667	8
0	49982	4502.766727604928	8
0	49984	4502.819926873667	8
0	49985	4502.866727604928	8
0	50048	4508.3	8
0	50088	4512.666727604928	5
0	50091	4512.766727604928	8
0	50092	4512.813528336189	8
0	50094	4512.866727604928	8
0	50095	4512.913528336189	8
0	50158	4518.3	8
0	50199	4522.713528336189	5
0	50201	4522.813528336189	8
0	50202	4522.86032906745	8
0	50204	4522.913528336189	8
0	50205	4522.96032906745	8
0	50268	4528.4	8
0	50309	4532.76032906745	5
0	50311	4532.86032906745	8
0	50312	4532.907129798711	8
0	50314	4532.96032906745	8
0	50315	4533.007129798711	8
0	50378	4538.4	8
0	50419	4542.807129798711	5
0	50421	4542.907129798711	8
0	50422	4542.953930529972	8
0	50424	4543.007129798711	8
0	50426	4543.053930529972	8
0	50488	4548.5	8
0	50529	4552.853930529972	5
0	50531	4552.953930529972	8
0	50532	4553.000731261233	8
0	50535	4553.053930529972	8
0	50536	4553.100731261233	8
0	50598	4558.5	8
0	50639	4562.900731261233	5
0	50641	4563.000731261233	8
0	50643	4563.047531992494	8
0	50645	4563.100731261233	8
0	50647	4563.147531992494	8
0	50708	4568.6	8
0	50749	4572.947531992494	5
0	50752	4573.047531992494	8
0	50753	4573.094332723755	8
0	50756	4573.147531992494	8
0	50757	4573.194332723755	8
0	50818	4578.6	8
0	50859	4582.994332723755	5
0	50862	4583.094332723755	8
0	50864	4583.141133455016	8
0	50866	4583.194332723755	8
0	50867	4583.241133455016	8
0	50928	4588.6	8
0	50969	4593.041133455016	5
0	50973	4593.141133455016	8
0	50974	4593.187934186277	8
0	50976	4593.241133455016	8
0	50977	4593.287934186277	8
0	51038	4598.7	8
0	51079	4603.087934186277	5
0	51083	4603.187934186277	8
0	51084	4603.234734917538	8
0	51086	4603.287934186277	8
0	51087	4603.334734917538	8
0	51148	4608.7	8
0	51190	4613.134734917538	5
0	51193	4613.234734917538	8
0	51194	4613.281535648799	8
0	51196	4613.334734917538	8
0	51197	4613.381535648799	8
0	51259	4618.8	8
0	51300	4623.181535648799	5
0	51302	4623.281535648799	8
0	51303	4623.32833638006	8
0	51305	4623.381535648799	8
0	51307	4623.42833638006	8
0	51369	4628.8	8
0	51410	4633.22833638006	5
0	51412	4633.32833638006	8
0	51413	4633.375137111321	8
0	51415	4633.42833638006	8
0	51416	4633.475137111321	8
0	51479	4638.9	8
0	51520	4643.275137111321	5
0	51522	4643.375137111321	8
0	51523	4643.421937842582	8
0	51525	4643.475137111321	8
0	51526	4643.521937842582	8
0	51589	4648.9	8
0	51630	4653.321937842582	5
0	51632	4653.421937842582	8
0	51633	4653.468738573843	8
0	51635	4653.521937842582	8
0	51636	4653.568738573843	8
0	51699	4659	8
0	51740	4663.368738573843	5
0	51742	4663.468738573843	8
0	51743	4663.515539305104	8
0	51745	4663.568738573843	8
0	51746	4663.615539305104	8
0	51809	4669	8
0	51850	4673.415539305104	5
0	51852	4673.515539305104	8
0	51853	4673.562340036365	8
0	51855	4673.615539305104	8
0	51856	4673.662340036365	8
0	51920	4679.1	8
0	51960	4683.462340036365	5
0	51962	4683.562340036365	8
0	51963	4683.609140767626	8
0	51965	4683.662340036365	8
0	51967	4683.709140767626	8
0	52029	4689.1	8
0	52070	4693.509140767626	5
0	52072	4693.609140767626	8
0	52073	4693.655941498887	8
0	52076	4693.709140767626	8
0	52077	4693.755941498887	8
0	52140	4699.2	8
0	52180	4703.555941498887	5
0	52182	4703.655941498887	8
0	52184	4703.702742230148	8
0	52186	4703.755941498887	8
0	52187	4703.802742230148	8
0	52247	4709.2	8
0	52290	4713.602742230148	5
0	52293	4713.702742230148	8
0	52294	4713.749542961409	8
0	52296	4713.802742230148	8
0	52297	4713.849542961409	8
0	52357	4719.3	8
0	52400	4723.649542961409	5
0	52403	4723.749542961409	8
0	52404	4723.79634369267	8
0	52406	4723.849542961409	8
0	52407	4723.89634369267	8
0	52464	4729.3	8
0	52510	4733.69634369267	5
0	52513	4733.79634369267	8
0	52514	4733.843144423931	8
0	52516	4733.89634369267	8
0	52517	4733.943144423931	8
0	52574	4739.3	8
0	52621	4743.743144423931	5
0	52623	4743.843144423931	8
0	52624	4743.889945155192	8
0	52626	4743.943144423931	8
0	52627	4743.989945155192	8
0	52684	4749.4	8
0	52731	4753.789945155192	5
0	52733	4753.889945155192	8
0	52734	4753.936745886453	8
0	52736	4753.989945155192	8
0	52737	4754.036745886453	8
0	52794	4759.4	8
0	52841	4763.836745886453	5
0	52843	4763.936745886453	8
0	52844	4763.983546617714	8
0	52846	4764.036745886453	8
0	52848	4764.083546617714	8
0	52904	4769.5	8
0	52951	4773.883546617714	5
0	52953	4773.983546617714	8
0	52954	4774.030347348975	8
0	52957	4774.083546617714	8
0	52958	4774.130347348975	8
0	53014	4779.5	8
0	53061	4783.930347348975	5
0	53063	4784.030347348975	8
0	53065	4784.077148080236	8
0	53067	4784.130347348975	8
0	53069	4784.177148080236	8
0	53124	4789.6	8
0	53171	4793.977148080236	5
0	53174	4794.077148080236	8
0	53175	4794.123948811497	8
0	53178	4794.177148080236	8
0	53179	4794.223948811497	8
0	53234	4799.6	8
0	53281	4804.023948811497	5
0	53284	4804.123948811497	8
0	53286	4804.170749542758	8
0	53288	4804.223948811497	8
0	53289	4804.270749542758	8
0	53344	4809.7	8
0	53392	4814.070749542758	5
0	53395	4814.170749542758	8
0	53396	4814.217550274019	8
0	53398	4814.270749542758	8
0	53399	4814.317550274019	8
0	53454	4819.7	8
0	53502	4824.117550274019	5
0	53505	4824.217550274019	8
0	53506	4824.26435100528	8
0	53508	4824.317550274019	8
0	53509	4824.36435100528	8
0	53565	4829.8	8
0	53613	4834.16435100528	5
0	53615	4834.26435100528	8
0	53616	4834.311151736541	8
0	53618	4834.36435100528	8
0	53619	4834.411151736541	8
0	53675	4839.8	8
0	53723	4844.211151736541	5
0	53725	4844.311151736541	8
0	53726	4844.357952467802	8
0	53728	4844.411151736541	8
0	53729	4844.457952467802	8
0	53785	4849.9	8
0	53833	4854.257952467802	5
0	53835	4854.357952467802	8
0	53836	4854.404753199063	8
0	53838	4854.457952467802	8
0	53839	4854.504753199063	8
0	53895	4859.9	8
0	53943	4864.304753199063	5
0	53945	4864.404753199063	8
0	53946	4864.451553930324	8
0	53948	4864.504753199063	8
0	53949	4864.551553930324	8
0	54005	4870	8
0	54053	4874.351553930324	5
0	54055	4874.451553930324	8
0	54056	4874.498354661585	8
0	54058	4874.551553930324	8
0	54059	4874.598354661585	8
0	54115	4880	8
0	54163	4884.398354661585	5
0	54165	4884.498354661585	8
0	54166	4884.545155392846	8
0	54168	4884.598354661585	8
0	54169	4884.645155392846	8
0	54225	4890	8
0	54273	4894.445155392846	5
0	54275	4894.545155392846	8
0	54276	4894.591956124107	8
0	54278	4894.645155392846	8
0	54279	4894.691956124107	8
0	54336	4900.1	8
0	54383	4904.491956124107	5
[...]
25	7232	595.814442413138	5.046800731261
25	7342	605.861243144399	5.046800731261
25	7452	615.90804387566	5.046800731261
25	7561	625.954844606921	5.046800731261
25	7671	636.001645338182	5.046800731261
25	7782	646.048446069443	5.046800731261
25	7892	656.095246800704	5.046800731261
25	8003	666.142047531965	5.046800731261
25	8113	676.188848263226	5.046800731261
25	8223	686.235648994487	5.046800731261
25	8333	696.282449725748	5.046800731261
25	8443	706.329250457009	5.046800731261
25	8553	716.37605118827	5.046800731261
25	8663	726.422851919531	5.046800731261
25	8773	736.469652650792	5.046800731261
25	8883	746.516453382053	5.046800731261
25	8993	756.563254113314	5.046800731261
25	9103	766.610054844575	5.046800731261
25	9213	776.656855575836	5.046800731261
25	9324	786.703656307097	5.046800731261
25	9434	796.750457038358	5.046800731261
25	9544	806.797257769619	5.046800731261
25	9654	816.84405850088	5.046800731261
25	9764	826.890859232141	5.046800731261
25	9874	836.937659963402	5.046800731261
25	9984	846.984460694663	5.046800731261
25	10094	857.031261425924	5.046800731261
25	10205	867.078062157185	5.046800731261
25	10315	877.124862888446	5.046800731261
25	10426	887.171663619707	5.046800731261
25	10536	897.218464350968	5.046800731261
25	10646	907.265265082229	5.046800731261
25	10756	917.31206581349	5.046800731261
25	10866	927.358866544751	5.046800731261
25	10976	937.405667276012	5.046800731261
25	11086	947.452468007273	5.046800731261
25	11196	957.499268738534	5.046800731261
25	11306	967.546069469795	5.046800731261
25	11416	977.592870201056	5.046800731261
25	11526	987.639670932317	5.046800731261
25	11635	997.686471663578	5.046800731261
25	11746	1007.733272394839	5.046800731261
25	11856	1017.7800731261	5.046800731261
25	11966	1027.826873857361	5.046800731261
25	12076	1037.873674588622	5.046800731261
25	12186	1047.920475319883	5.046800731261
25	12296	1057.967276051144	5.046800731261
25	12406	1068.014076782405	5.046800731261
25	12517	1078.060877513666	5.046800731261
25	12627	1088.107678244927	5.046800731261
25	12738	1098.154478976188	5.046800731261
25	12848	1108.201279707449	5.046800731261
25	12958	1118.24808043871	5.046800731261
25	13068	1128.294881169971	5.046800731261
25	13178	1138.341681901232	5.046800731261
25	13288	1148.388482632493	5.046800731261
25	13397	1158.435283363754	5.046800731261
25	13506	1168.482084095015	5.046800731261
25	13614	1178.528884826276	5.046800731261
25	13722	1188.575685557537	5.046800731261
25	13831	1198.622486288798	5.046800731261
25	13941	1208.669287020059	5.046800731261
25	14052	1218.71608775132	5.046800731261
25	14162	1228.762888482581	5.046800731261
25	14272	1238.809689213842	5.046800731261
25	14382	1248.856489945103	5.046800731261
25	14492	1258.903290676364	5.046800731261
25	14601	1268.950091407625	5.046800731261
25	14711	1278.996892138886	5.046800731261
25	14821	1289.043692870147	5.046800731261
25	14932	1299.090493601408	5.046800731261
25	15043	1309.137294332669	5.046800731261
25	15153	1319.18409506393	5.046800731261
25	15263	1329.230895795191	5.046800731261
25	15373	1339.277696526452	5.046800731261
25	15483	1349.324497257713	5.046800731261
25	15593	1359.371297988974	5.046800731261
25	15703	1369.418098720235	5.046800731261
25	15813	1379.464899451496	5.046800731261
25	15923	1389.511700182757	5.046800731261
25	16033	1399.558500914018	5.046800731261
25	16143	1409.605301645279	5.046800731261
25	16253	1419.65210237654	5.046800731261
25	16363	1429.698903107801	5.046800731261
25	16474	1439.745703839062	5.046800731261
25	16584	1449.792504570323	5.046800731261
25	16694	1459.839305301584	5.046800731261
25	16804	1469.886106032845	5.046800731261
25	16914	1479.932906764106	5.046800731261
25	17024	1489.979707495367	5.046800731261
25	17134	1500.026508226628	5.046800731261
25	17245	1510.073308957889	5.046800731261
25	17355	1520.12010968915	5.046800731261
25	17466	1530.166910420411	5.046800731261
25	17576	1540.213711151672	5.046800731261
25	17685	1550.260511882933	5.046800731261
25	17795	1560.307312614194	5.046800731261
25	17905	1570.354113345455	5.046800731261
25	18015	1580.400914076716	5.046800731261
25	18125	1590.447714807977	5.046800731261
25	18235	1600.494515539238	5.046800731261
25	18345	1610.541316270499	5.046800731261
25	18455	1620.58811700176	5.046800731261
25	18565	1630.634917733021	5.046800731261
25	18675	1640.681718464282	5.046800731261
25	18785	1650.728519195543	5.046800731261
25	18895	1660.775319926804	5.046800731261
25	19005	1670.822120658065	5.046800731261
25	19115	1680.868921389326	5.046800731261
25	19225	1690.915722120587	5.046800731261
25	19335	1700.962522851848	5.046800731261
25	19445	1711.009323583109	5.046800731261
25	19556	1721.05612431437	5.046800731261
25	19666	1731.102925045631	5.046800731261
25	19777	1741.149725776892	5.046800731261
25	19887	1751.196526508153	5.046800731261
25	19997	1761.243327239414	5.046800731261
25	20107	1771.290127970675	5.046800731261
25	20217	1781.336928701936	5.046800731261
25	20327	1791.383729433197	5.046800731261
25	20437	1801.430530164458	5.046800731261
25	20547	1811.477330895719	5.046800731261
25	20657	1821.52413162698	5.046800731261
25	20767	1831.570932358241	5.046800731261
25	20877	1841.617733089502	5.046800731261
25	20987	1851.664533820763	5.046800731261
25	21098	1861.711334552024	5.046800731261
25	21208	1871.758135283285	5.046800731261
25	21318	1881.804936014546	5.046800731261
25	21428	1891.851736745807	5.046800731261
25	21538	1901.898537477068	5.046800731261
25	21648	1911.945338208329	5.046800731261
25	21758	1921.99213893959	5.046800731261
25	21868	1932.038939670851	5.046800731261
25	21979	1942.085740402112	5.046800731261
25	22090	1952.132541133373	5.046800731261
25	22200	1962.179341864634	5.046800731261
25	22310	1972.226142595895	5.046800731261
25	22420	1982.272943327156	5.046800731261
25	22530	1992.319744058417	5.046800731261
25	22640	2002.366544789678	5.046800731261
25	22750	2012.413345520939	5.046800731261
25	22860	2022.4601462522	5.046800731261
25	22970	2032.506946983461	5.046800731261
25	23080	2042.553747714722	5.046800731261
25	23190	2052.600548445983	5.046800731261
25	23300	2062.647349177244	5.046800731261
25	23410	2072.694149908505	5.046800731261
25	23521	2082.740950639766	5.046800731261
25	23631	2092.787751371027	5.046800731261
25	23741	2102.834552102288	5.046800731261
25	23851	2112.881352833549	5.046800731261
25	23961	2122.92815356481	5.046800731261
25	24071	2132.974954296071	5.046800731261
25	24181	2143.021755027332	5.046800731261
25	24292	2153.068555758593	5.046800731261
25	24402	2163.115356489854	5.046800731261
25	24513	2173.162157221115	5.046800731261
25	24623	2183.208957952376	5.046800731261
25	24732	2193.255758683637	5.046800731261
25	24839	2203.302559414898	5.046800731261
25	24947	2213.349360146159	5.046800731261
25	25056	2223.39616087742	5.046800731261
25	25166	2233.442961608681	5.046800731261
25	25276	2243.489762339942	5.046800731261
25	25386	2253.536563071203	5.046800731261
25	25496	2263.583363802464	5.046800731261
25	25606	2273.630164533725	5.046800731261
25	25716	2283.676965264986	5.046800731261
25	25827	2293.723765996247	5.046800731261
25	25937	2303.770566727508	5.046800731261
25	26047	2313.817367458769	5.046800731261
25	26157	2323.86416819003	5.046800731261
25	26267	2333.910968921291	5.046800731261
25	26377	2343.957769652552	5.046800731261
25	26487	2354.004570383813	5.046800731261
25	26598	2364.051371115074	5.046800731261
25	26708	2374.098171846335	5.046800731261
25	26819	2384.144972577596	5.046800731261
25	26929	2394.191773308857	5.046800731261
25	27039	2404.238574040118	5.046800731261
25	27149	2414.285374771379	5.046800731261
25	27259	2424.33217550264	5.046800731261
25	27369	2434.378976233901	5.046800731261
25	27479	2444.425776965162	5.046800731261
25	27589	2454.472577696423	5.046800731261
25	27699	2464.519378427684	5.046800731261
25	27809	2474.566179158945	5.046800731261
25	27919	2484.612979890206	5.046800731261
25	28029	2494.659780621467	5.046800731261
25	28140	2504.706581352728	5.046800731261
25	28250	2514.753382083989	5.046800731261
25	28360	2524.80018281525	5.046800731261
25	28469	2534.846983546511	5.046800731261
25	28579	2544.893784277772	5.046800731261
25	28689	2554.940585009033	5.046800731261
25	28796	2564.987385740294	5.046800731261
25	28906	2575.034186471555	5.046800731261
25	29015	2585.080987202816	5.046800731261
25	29125	2595.127787934077	5.046800731261
25	29236	2605.174588665338	5.046800731261
25	29345	2615.221389396599	5.046800731261
25	29455	2625.26819012786	5.046800731261
25	29565	2635.314990859121	5.046800731261
25	29675	2645.361791590382	5.046800731261
25	29785	2655.408592321643	5.046800731261
25	29895	2665.455393052904	5.046800731261
25	30005	2675.502193784165	5.046800731261
25	30114	2685.548994515426	5.046800731261
25	30224	2695.595795246687	5.046800731261
25	30334	2705.642595977948	5.046800731261
25	30444	2715.689396709209	5.046800731261
25	30555	2725.73619744047	5.046800731261
25	30665	2735.782998171731	5.046800731261
25	30775	2745.829798902992	5.046800731261
25	30885	2755.876599634253	5.046800731261
25	30995	2765.923400365514	5.046800731261
25	31105	2775.970201096775	5.046800731261
25	31215	2786.017001828036	5.046800731261
25	31325	2796.063802559297	5.046800731261
25	31435	2806.110603290558	5.046800731261
25	31544	2816.157404021819	5.046800731261
25	31653	2826.20420475308	5.046800731261
25	31763	2836.251005484341	5.046800731261
25	31871	2846.297806215602	5.046800731261
25	31981	2856.344606946863	5.046800731261
25	32091	2866.391407678124	5.046800731261
25	32200	2876.438208409385	5.046800731261
25	32310	2886.485009140646	5.046800731261
25	32420	2896.531809871907	5.046800731261
25	32530	2906.578610603168	5.046800731261
25	32640	2916.625411334429	5.046800731261
25	32750	2926.67221206569	5.046800731261
25	32861	2936.719012796951	5.046800731261
25	32971	2946.765813528212	5.046800731261
25	33081	2956.812614259473	5.046800731261
25	33191	2966.859414990734	5.046800731261
25	33301	2976.906215721995	5.046800731261
25	33411	2986.953016453256	5.046800731261
25	33521	2996.999817184517	5.046800731261
25	33632	3007.046617915778	5.046800731261
25	33742	3017.093418647039	5.046800731261
25	33853	3027.1402193783	5.046800731261
25	33963	3037.187020109561	5.046800731261
25	34073	3047.233820840822	5.046800731261
25	34183	3057.280621572083	5.046800731261
25	34293	3067.327422303344	5.046800731261
25	34402	3077.374223034605	5.046800731261
25	34512	3087.421023765866	5.046800731261
25	34622	3097.467824497127	5.046800731261
25	34729	3107.514625228388	5.046800731261
25	34839	3117.561425959649	5.046800731261
25	34949	3127.60822669091	5.046800731261
25	35057	3137.655027422171	5.046800731261
25	35168	3147.701828153432	5.046800731261
25	35277	3157.748628884693	5.046800731261
25	35387	3167.795429615954	5.046800731261
25	35497	3177.842230347215	5.046800731261
25	35607	3187.889031078476	5.046800731261
25	35717	3197.935831809737	5.046800731261
25	35827	3207.982632540998	5.046800731261
25	35937	3218.029433272259	5.046800731261
25	36047	3228.07623400352	5.046800731261
25	36154	3238.123034734781	5.046800731261
25	36263	3248.169835466042	5.046800731261
25	36372	3258.216636197303	5.046800731261
25	36482	3268.263436928564	5.046800731261
25	36592	3278.310237659825	5.046800731261
25	36702	3288.357038391086	5.046800731261
25	36812	3298.403839122347	5.046800731261
25	36922	3308.450639853608	5.046800731261
25	37032	3318.497440584869	5.046800731261
25	37142	3328.54424131613	5.046800731261
25	37252	3338.591042047391	5.046800731261
25	37362	3348.637842778652	5.046800731261
25	37472	3358.684643509913	5.046800731261
25	37583	3368.731444241174	5.046800731261
25	37693	3378.778244972435	5.046800731261
25	37803	3388.825045703696	5.046800731261
25	37913	3398.871846434957	5.046800731261
25	38023	3408.918647166218	5.046800731261
25	38133	3418.965447897479	5.046800731261
25	38243	3429.01224862874	5.046800731261
25	38354	3439.059049360001	5.046800731261
25	38464	3449.105850091262	5.046800731261
25	38575	3459.152650822523	5.046800731261
25	38685	3469.199451553784	5.046800731261
25	38795	3479.246252285045	5.046800731261
25	38905	3489.293053016306	5.046800731261
25	39015	3499.339853747567	5.046800731261
25	39125	3509.386654478828	5.046800731261
25	39235	3519.433455210089	5.046800731261
25	39345	3529.48025594135	5.046800731261
25	39455	3539.527056672611	5.046800731261
25	39565	3549.573857403872	5.046800731261
25	39675	3559.620658135133	5.046800731261
25	39785	3569.667458866394	5.046800731261
25	39896	3579.714259597655	5.046800731261
25	40006	3589.761060328916	5.046800731261
25	40116	3599.807861060177	5.046800731261
25	40226	3609.854661791438	5.046800731261
25	40336	3619.901462522699	5.046800731261
25	40446	3629.94826325396	5.046800731261
25	40556	3639.995063985221	5.046800731261
25	40666	3650.041864716482	5.046800731261
25	40777	3660.088665447743	5.046800731261
25	40888	3670.135466179004	5.046800731261
25	40998	3680.182266910265	5.046800731261
25	41108	3690.229067641526	5.046800731261
25	41218	3700.275868372787	5.046800731261
25	41328	3710.322669104048	5.046800731261
25	41437	3720.369469835309	5.046800731261
25	41547	3730.41627056657	5.046800731261
25	41657	3740.463071297831	5.046800731261
25	41767	3750.509872029092	5.046800731261
25	41877	3760.556672760353	5.046800731261
25	41987	3770.603473491614	5.046800731261
25	42097	3780.650274222875	5.046800731261
25	42207	3790.697074954136	5.046800731261
25	42318	3800.743875685397	5.046800731261
25	42428	3810.790676416658	5.046800731261
25	42538	3820.837477147919	5.046800731261
25	42648	3830.88427787918	5.046800731261
25	42758	3840.931078610441	5.046800731261
25	42868	3850.977879341702	5.046800731261
25	42978	3861.024680072963	5.046800731261
25	43089	3871.071480804224	5.046800731261
25	43199	3881.118281535485	5.046800731261
25	43309	3891.165082266746	5.046800731261
25	43419	3901.211882998007	5.046800731261
25	43529	3911.258683729268	5.046800731261
25	43639	3921.305484460529	5.046800731261
25	43749	3931.35228519179	5.046800731261
25	43859	3941.399085923051	5.046800731261
25	43969	3951.445886654312	5.046800731261
25	44079	3961.492687385573	5.046800731261
25	44189	3971.539488116834	5.046800731261
25	44299	3981.586288848095	5.046800731261
25	44409	3991.633089579356	5.046800731261
25	44519	4001.679890310617	5.046800731261
25	44630	4011.726691041878	5.046800731261
25	44740	4021.773491773139	5.046800731261
25	44850	4031.8202925044	5.046800731261
25	44960	4041.867093235661	5.046800731261
25	45070	4051.913893966922	5.046800731261
25	45180	4061.960694698183	5.046800731261
25	45290	4072.007495429444	5.046800731261
25	45401	4082.054296160705	5.046800731261
25	45511	4092.101096891966	5.046800731261
25	45622	4102.147897623227	5.046800731261
25	45732	4112.194698354488	5.046800731261
25	45842	4122.241499085749	5.046800731261
25	45951	4132.28829981701	5.046800731261
25	46062	4142.335100548271	5.046800731261
25	46171	4152.381901279532	5.046800731261
25	46281	4162.428702010793	5.046800731261
25	46391	4172.475502742054	5.046800731261
25	46501	4182.522303473315	5.046800731261
25	46611	4192.569104204576	5.046800731261
25	46721	4202.615904935837	5.046800731261
25	46831	4212.662705667098	5.046800731261
25	46942	4222.709506398359	5.046800731261
25	47052	4232.75630712962	5.046800731261
25	47162	4242.803107860881	5.046800731261
25	47272	4252.849908592142	5.046800731261
25	47381	4262.896709323403	5.046800731261
25	47488	4272.943510054664	5.046800731261
25	47596	4282.990310785925	5.046800731261
25	47705	4293.037111517186	5.046800731261
25	47816	4303.083912248447	5.046800731261
25	47927	4313.130712979708	5.046800731261
25	48037	4323.177513710969	5.046800731261
25	48147	4333.22431444223	5.046800731261
25	48257	4343.271115173491	5.046800731261
25	48367	4353.317915904752	5.046800731261
25	48477	4363.364716636013	5.046800731261
25	48587	4373.411517367274	5.046800731261
25	48697	4383.458318098535	5.046800731261
25	48807	4393.505118829796	5.046800731261
25	48917	4403.551919561057	5.046800731261
25	49026	4413.598720292318	5.046800731261
25	49137	4423.645521023579	5.046800731261
25	49246	4433.69232175484	5.046800731261
25	49357	4443.739122486101	5.046800731261
25	49467	4453.785923217362	5.046800731261
25	49577	4463.832723948623	5.046800731261
25	49687	4473.879524679884	5.046800731261
25	49797	4483.926325411145	5.046800731261
25	49907	4493.973126142406	5.046800731261
25	50017	4504.019926873667	5.046800731261
25	50128	4514.066727604928	5.046800731261
25	50238	4524.113528336189	5.046800731261
25	50349	4534.16032906745	5.046800731261
25	50459	4544.207129798711	5.046800731261
25	50569	4554.253930529972	5.046800731261
25	50679	4564.300731261233	5.046800731261
25	50789	4574.347531992494	5.046800731261
25	50899	4584.394332723755	5.046800731261
25	51009	4594.441133455016	5.046800731261
25	51119	4604.487934186277	5.046800731261
25	51229	4614.534734917538	5.046800731261
25	51339	4624.581535648799	5.046800731261
25	51449	4634.62833638006	5.046800731261
25	51559	4644.675137111321	5.046800731261
25	51670	4654.721937842582	5.046800731261
25	51780	4664.768738573843	5.046800731261
25	51890	4674.815539305104	5.046800731261
25	52000	4684.862340036365	5.046800731261
25	52110	4694.909140767626	5.046800731261
25	52220	4704.955941498887	5.046800731261
25	52330	4715.002742230148	5.046800731261
25	52441	4725.049542961409	5.046800731261
25	52551	4735.09634369267	5.046800731261
25	52662	4745.143144423931	5.046800731261
25	52771	4755.189945155192	5.046800731261
25	52881	4765.236745886453	5.046800731261
25	52991	4775.283546617714	5.046800731261
25	53101	4785.330347348975	5.046800731261
25	53211	4795.377148080236	5.046800731261
25	53321	4805.423948811497	5.046800731261
25	53431	4815.470749542758	5.046800731261
25	53541	4825.517550274019	5.046800731261
25	53651	4835.56435100528	5.046800731261
25	53761	4845.611151736541	5.046800731261
25	53871	4855.657952467802	5.046800731261
25	53982	4865.704753199063	5.046800731261
25	54092	4875.751553930324	5.046800731261
25	54202	4885.798354661585	5.046800731261
25	54312	4895.845155392846	5.046800731261
25	54422	4905.891956124107	5.046800731261
25	54532	4915.938756855368	5.046800731261
25	54642	4925.985557586629	5.046800731261
25	54752	4936.03235831789	5.046800731261
25	54863	4946.079159049151	5.046800731261
25	54973	4956.125959780412	5.046800731261
25	55084	4966.172760511673	5.046800731261
25	55194	4976.219561242934	5.046800731261
25	55304	4986.266361974195	5.046800731261
25	55414	4996.313162705456	5.046800731261
25	55524	5006.359963436717	5.046800731261
25	55634	5016.406764167978	5.046800731261
25	55744	5026.453564899239	5.046800731261
25	55854	5036.5003656305	5.046800731261
25	55964	5046.547166361761	5.046800731261
25	56074	5056.593967093022	5.046800731261
25	56184	5066.640767824283	5.046800731261
25	56294	5076.687568555544	5.046800731261
25	56405	5086.734369286805	5.046800731261
25	56515	5096.781170018066	5.046800731261
25	56625	5106.827970749327	5.046800731261
25	56735	5116.874771480588	5.046800731261
25	56845	5126.921572211849	5.046800731261
25	56955	5136.96837294311	5.046800731261
25	57065	5147.015173674371	5.046800731261
25	57176	5157.061974405632	5.046800731261
25	57286	5167.108775136893	5.046800731261
25	57397	5177.155575868154	5.046800731261
25	57507	5187.202376599415	5.046800731261
25	57617	5197.249177330676	5.046800731261
25	57727	5207.295978061937	5.046800731261
25	57837	5217.342778793198	5.046800731261
25	57947	5227.389579524459	5.046800731261
25	58057	5237.43638025572	5.046800731261
25	58167	5247.483180986981	5.046800731261
25	58277	5257.529981718242	5.046800731261
25	58387	5267.576782449503	5.046800731261
25	58497	5277.623583180764	5.046800731261
25	58606	5287.670383912025	5.046800731261
25	58716	5297.717184643286	5.046800731261
25	58824	5307.763985374547	5.046800731261
25	58932	5317.810786105808	5.046800731261
25	59041	5327.857586837069	5.046800731261
25	59151	5337.90438756833	5.046800731261
25	59261	5347.951188299591	5.046800731261
25	59371	5357.997989030852	5.046800731261
25	59481	5368.044789762113	5.046800731261
25	59592	5378.091590493374	5.046800731261
25	59703	5388.138391224635	5.046800731261
25	59813	5398.185191955896	5.046800731261

